
---------- Begin Simulation Statistics ----------
final_tick                                57381105500                       # Number of ticks from beginning of simulation (restored from checkpoints and never reset)
host_inst_rate                                 194205                       # Simulator instruction rate (inst/s)
host_mem_usage                                 669416                       # Number of bytes of host memory used
host_op_rate                                   212521                       # Simulator op (including micro ops) rate (op/s)
host_seconds                                   514.92                       # Real time elapsed on the host
host_tick_rate                              111437039                       # Simulator tick rate (ticks/s)
sim_freq                                 1000000000000                       # Frequency of simulated ticks
sim_insts                                   100000001                       # Number of instructions simulated
sim_ops                                     109431277                       # Number of ops (including micro ops) simulated
sim_seconds                                  0.057381                       # Number of seconds simulated
sim_ticks                                 57381105500                       # Number of ticks simulated
system.cpu.committedInsts                   100000001                       # Number of instructions committed
system.cpu.committedOps                     109431277                       # Number of ops (including micro ops) committed
system.cpu.cpi                               1.147622                       # CPI: cycles per instruction
system.cpu.discardedOps                        378071                       # Number of ops (including micro ops) which were discarded before commit
system.cpu.idleCycles                         4371037                       # Total number of cycles that the object has spent stopped
system.cpu.ipc                               0.871367                       # IPC: instructions per cycle
system.cpu.numCycles                        114762211                       # number of cpu cycles simulated
system.cpu.numFetchSuspends                         0                       # Number of times Execute suspended instruction fetching
system.cpu.numWorkItemsCompleted                    0                       # number of work items this cpu completed
system.cpu.numWorkItemsStarted                      0                       # number of work items this cpu started
system.cpu.op_class_0::No_OpClass                   0      0.00%      0.00% # Class of committed instruction
system.cpu.op_class_0::IntAlu                72955010     66.67%     66.67% # Class of committed instruction
system.cpu.op_class_0::IntMult                 568364      0.52%     67.19% # Class of committed instruction
system.cpu.op_class_0::IntDiv                       0      0.00%     67.19% # Class of committed instruction
system.cpu.op_class_0::FloatAdd                     0      0.00%     67.19% # Class of committed instruction
system.cpu.op_class_0::FloatCmp                     0      0.00%     67.19% # Class of committed instruction
system.cpu.op_class_0::FloatCvt                     0      0.00%     67.19% # Class of committed instruction
system.cpu.op_class_0::FloatMult                    0      0.00%     67.19% # Class of committed instruction
system.cpu.op_class_0::FloatMultAcc                 0      0.00%     67.19% # Class of committed instruction
system.cpu.op_class_0::FloatDiv                     0      0.00%     67.19% # Class of committed instruction
system.cpu.op_class_0::FloatMisc                    0      0.00%     67.19% # Class of committed instruction
system.cpu.op_class_0::FloatSqrt                    0      0.00%     67.19% # Class of committed instruction
system.cpu.op_class_0::SimdAdd                 241336      0.22%     67.41% # Class of committed instruction
system.cpu.op_class_0::SimdAddAcc                   0      0.00%     67.41% # Class of committed instruction
system.cpu.op_class_0::SimdAlu                 154628      0.14%     67.55% # Class of committed instruction
system.cpu.op_class_0::SimdCmp                 120668      0.11%     67.66% # Class of committed instruction
system.cpu.op_class_0::SimdCvt                      0      0.00%     67.66% # Class of committed instruction
system.cpu.op_class_0::SimdMisc                 44543      0.04%     67.70% # Class of committed instruction
system.cpu.op_class_0::SimdMult                     0      0.00%     67.70% # Class of committed instruction
system.cpu.op_class_0::SimdMultAcc                  0      0.00%     67.70% # Class of committed instruction
system.cpu.op_class_0::SimdShift                    0      0.00%     67.70% # Class of committed instruction
system.cpu.op_class_0::SimdShiftAcc                 0      0.00%     67.70% # Class of committed instruction
system.cpu.op_class_0::SimdDiv                      0      0.00%     67.70% # Class of committed instruction
system.cpu.op_class_0::SimdSqrt                     0      0.00%     67.70% # Class of committed instruction
system.cpu.op_class_0::SimdFloatAdd                 0      0.00%     67.70% # Class of committed instruction
system.cpu.op_class_0::SimdFloatAlu                 0      0.00%     67.70% # Class of committed instruction
system.cpu.op_class_0::SimdFloatCmp                 0      0.00%     67.70% # Class of committed instruction
system.cpu.op_class_0::SimdFloatCvt                 0      0.00%     67.70% # Class of committed instruction
system.cpu.op_class_0::SimdFloatDiv                 0      0.00%     67.70% # Class of committed instruction
system.cpu.op_class_0::SimdFloatMisc           166417      0.15%     67.85% # Class of committed instruction
system.cpu.op_class_0::SimdFloatMult                0      0.00%     67.85% # Class of committed instruction
system.cpu.op_class_0::SimdFloatMultAcc             0      0.00%     67.85% # Class of committed instruction
system.cpu.op_class_0::SimdFloatSqrt                0      0.00%     67.85% # Class of committed instruction
system.cpu.op_class_0::SimdReduceAdd                0      0.00%     67.85% # Class of committed instruction
system.cpu.op_class_0::SimdReduceAlu                0      0.00%     67.85% # Class of committed instruction
system.cpu.op_class_0::SimdReduceCmp                0      0.00%     67.85% # Class of committed instruction
system.cpu.op_class_0::SimdFloatReduceAdd            0      0.00%     67.85% # Class of committed instruction
system.cpu.op_class_0::SimdFloatReduceCmp            0      0.00%     67.85% # Class of committed instruction
system.cpu.op_class_0::SimdAes                      0      0.00%     67.85% # Class of committed instruction
system.cpu.op_class_0::SimdAesMix                   0      0.00%     67.85% # Class of committed instruction
system.cpu.op_class_0::SimdSha1Hash                 0      0.00%     67.85% # Class of committed instruction
system.cpu.op_class_0::SimdSha1Hash2                0      0.00%     67.85% # Class of committed instruction
system.cpu.op_class_0::SimdSha256Hash               0      0.00%     67.85% # Class of committed instruction
system.cpu.op_class_0::SimdSha256Hash2              0      0.00%     67.85% # Class of committed instruction
system.cpu.op_class_0::SimdShaSigma2                0      0.00%     67.85% # Class of committed instruction
system.cpu.op_class_0::SimdShaSigma3                0      0.00%     67.85% # Class of committed instruction
system.cpu.op_class_0::SimdPredAlu                  0      0.00%     67.85% # Class of committed instruction
system.cpu.op_class_0::MemRead               20645992     18.87%     86.72% # Class of committed instruction
system.cpu.op_class_0::MemWrite              14534319     13.28%    100.00% # Class of committed instruction
system.cpu.op_class_0::FloatMemRead                 0      0.00%    100.00% # Class of committed instruction
system.cpu.op_class_0::FloatMemWrite                0      0.00%    100.00% # Class of committed instruction
system.cpu.op_class_0::IprAccess                    0      0.00%    100.00% # Class of committed instruction
system.cpu.op_class_0::InstPrefetch                 0      0.00%    100.00% # Class of committed instruction
system.cpu.op_class_0::total                109431277                       # Class of committed instruction
system.cpu.tickCycles                       110391174                       # Number of cycles that the object actually ticked
system.cpu.workload.numSyscalls                    87                       # Number of system calls
system.membus.snoop_filter.hit_multi_requests            0                       # Number of requests hitting in the snoop filter with multiple (>1) holders of the requested data.
system.membus.snoop_filter.hit_multi_snoops            0                       # Number of snoops hitting in the snoop filter with multiple (>1) holders of the requested data.
system.membus.snoop_filter.hit_single_requests            0                       # Number of requests hitting in the snoop filter with a single holder of the requested data.
system.membus.snoop_filter.hit_single_snoops            0                       # Number of snoops hitting in the snoop filter with a single holder of the requested data.
system.membus.snoop_filter.tot_requests         39560                       # Total number of requests made to the snoop filter.
system.membus.snoop_filter.tot_snoops               0                       # Total number of snoops made to the snoop filter.
system.tol2bus.snoop_filter.hit_multi_requests          409                       # Number of requests hitting in the snoop filter with multiple (>1) holders of the requested data.
system.tol2bus.snoop_filter.hit_multi_snoops            0                       # Number of snoops hitting in the snoop filter with multiple (>1) holders of the requested data.
system.tol2bus.snoop_filter.hit_single_requests        76831                       # Number of requests hitting in the snoop filter with a single holder of the requested data.
system.tol2bus.snoop_filter.hit_single_snoops            0                       # Number of snoops hitting in the snoop filter with a single holder of the requested data.
system.tol2bus.snoop_filter.tot_requests       154238                       # Total number of requests made to the snoop filter.
system.tol2bus.snoop_filter.tot_snoops              0                       # Total number of snoops made to the snoop filter.
system.clk_domain.clock                          1000                       # Clock period in ticks
system.cpu.branchPred.lookups                20361288                       # Number of BP lookups
system.cpu.branchPred.condPredicted          16298494                       # Number of conditional branches predicted
system.cpu.branchPred.condIncorrect             53731                       # Number of conditional branches incorrect
system.cpu.branchPred.BTBLookups              8737716                       # Number of BTB lookups
system.cpu.branchPred.BTBHits                 8736315                       # Number of BTB hits
system.cpu.branchPred.BTBHitPct             99.983966                       # BTB Hit Percentage
system.cpu.branchPred.RASUsed                 1050586                       # Number of times the RAS was used to get a target.
system.cpu.branchPred.RASIncorrect                326                       # Number of incorrect RAS predictions.
system.cpu.branchPred.indirectLookups          434339                       # Number of indirect predictor lookups.
system.cpu.branchPred.indirectHits             300027                       # Number of indirect target hits.
system.cpu.branchPred.indirectMisses           134312                       # Number of indirect misses.
system.cpu.branchPred.indirectMispredicted         1047                       # Number of mispredicted indirect branches.
system.cpu.dcache.demand_hits::.cpu.data     35583770                       # number of demand (read+write) hits
system.cpu.dcache.demand_hits::total         35583770                       # number of demand (read+write) hits
system.cpu.dcache.overall_hits::.cpu.data     35586940                       # number of overall hits
system.cpu.dcache.overall_hits::total        35586940                       # number of overall hits
system.cpu.dcache.demand_misses::.cpu.data       102477                       # number of demand (read+write) misses
system.cpu.dcache.demand_misses::total         102477                       # number of demand (read+write) misses
system.cpu.dcache.overall_misses::.cpu.data       102668                       # number of overall misses
system.cpu.dcache.overall_misses::total        102668                       # number of overall misses
system.cpu.dcache.demand_miss_latency::.cpu.data   5124942500                       # number of demand (read+write) miss cycles
system.cpu.dcache.demand_miss_latency::total   5124942500                       # number of demand (read+write) miss cycles
system.cpu.dcache.overall_miss_latency::.cpu.data   5124942500                       # number of overall miss cycles
system.cpu.dcache.overall_miss_latency::total   5124942500                       # number of overall miss cycles
system.cpu.dcache.demand_accesses::.cpu.data     35686247                       # number of demand (read+write) accesses
system.cpu.dcache.demand_accesses::total     35686247                       # number of demand (read+write) accesses
system.cpu.dcache.overall_accesses::.cpu.data     35689608                       # number of overall (read+write) accesses
system.cpu.dcache.overall_accesses::total     35689608                       # number of overall (read+write) accesses
system.cpu.dcache.demand_miss_rate::.cpu.data     0.002872                       # miss rate for demand accesses
system.cpu.dcache.demand_miss_rate::total     0.002872                       # miss rate for demand accesses
system.cpu.dcache.overall_miss_rate::.cpu.data     0.002877                       # miss rate for overall accesses
system.cpu.dcache.overall_miss_rate::total     0.002877                       # miss rate for overall accesses
system.cpu.dcache.demand_avg_miss_latency::.cpu.data 50010.660929                       # average overall miss latency
system.cpu.dcache.demand_avg_miss_latency::total 50010.660929                       # average overall miss latency
system.cpu.dcache.overall_avg_miss_latency::.cpu.data 49917.622823                       # average overall miss latency
system.cpu.dcache.overall_avg_miss_latency::total 49917.622823                       # average overall miss latency
system.cpu.dcache.blocked_cycles::no_mshrs            0                       # number of cycles access was blocked
system.cpu.dcache.blocked_cycles::no_targets            0                       # number of cycles access was blocked
system.cpu.dcache.blocked::no_mshrs                 0                       # number of cycles access was blocked
system.cpu.dcache.blocked::no_targets               0                       # number of cycles access was blocked
system.cpu.dcache.avg_blocked_cycles::no_mshrs          nan                       # average number of cycles each access was blocked
system.cpu.dcache.avg_blocked_cycles::no_targets          nan                       # average number of cycles each access was blocked
system.cpu.dcache.writebacks::.writebacks        65596                       # number of writebacks
system.cpu.dcache.writebacks::total             65596                       # number of writebacks
system.cpu.dcache.demand_mshr_hits::.cpu.data        26022                       # number of demand (read+write) MSHR hits
system.cpu.dcache.demand_mshr_hits::total        26022                       # number of demand (read+write) MSHR hits
system.cpu.dcache.overall_mshr_hits::.cpu.data        26022                       # number of overall MSHR hits
system.cpu.dcache.overall_mshr_hits::total        26022                       # number of overall MSHR hits
system.cpu.dcache.demand_mshr_misses::.cpu.data        76455                       # number of demand (read+write) MSHR misses
system.cpu.dcache.demand_mshr_misses::total        76455                       # number of demand (read+write) MSHR misses
system.cpu.dcache.overall_mshr_misses::.cpu.data        76641                       # number of overall MSHR misses
system.cpu.dcache.overall_mshr_misses::total        76641                       # number of overall MSHR misses
system.cpu.dcache.demand_mshr_miss_latency::.cpu.data   3865125000                       # number of demand (read+write) MSHR miss cycles
system.cpu.dcache.demand_mshr_miss_latency::total   3865125000                       # number of demand (read+write) MSHR miss cycles
system.cpu.dcache.overall_mshr_miss_latency::.cpu.data   3868219000                       # number of overall MSHR miss cycles
system.cpu.dcache.overall_mshr_miss_latency::total   3868219000                       # number of overall MSHR miss cycles
system.cpu.dcache.demand_mshr_miss_rate::.cpu.data     0.002142                       # mshr miss rate for demand accesses
system.cpu.dcache.demand_mshr_miss_rate::total     0.002142                       # mshr miss rate for demand accesses
system.cpu.dcache.overall_mshr_miss_rate::.cpu.data     0.002147                       # mshr miss rate for overall accesses
system.cpu.dcache.overall_mshr_miss_rate::total     0.002147                       # mshr miss rate for overall accesses
system.cpu.dcache.demand_avg_mshr_miss_latency::.cpu.data 50554.247597                       # average overall mshr miss latency
system.cpu.dcache.demand_avg_mshr_miss_latency::total 50554.247597                       # average overall mshr miss latency
system.cpu.dcache.overall_avg_mshr_miss_latency::.cpu.data 50471.927558                       # average overall mshr miss latency
system.cpu.dcache.overall_avg_mshr_miss_latency::total 50471.927558                       # average overall mshr miss latency
system.cpu.dcache.replacements                  76513                       # number of replacements
system.cpu.dcache.ReadReq_hits::.cpu.data     21386058                       # number of ReadReq hits
system.cpu.dcache.ReadReq_hits::total        21386058                       # number of ReadReq hits
system.cpu.dcache.ReadReq_misses::.cpu.data        45921                       # number of ReadReq misses
system.cpu.dcache.ReadReq_misses::total         45921                       # number of ReadReq misses
system.cpu.dcache.ReadReq_miss_latency::.cpu.data    630077000                       # number of ReadReq miss cycles
system.cpu.dcache.ReadReq_miss_latency::total    630077000                       # number of ReadReq miss cycles
system.cpu.dcache.ReadReq_accesses::.cpu.data     21431979                       # number of ReadReq accesses(hits+misses)
system.cpu.dcache.ReadReq_accesses::total     21431979                       # number of ReadReq accesses(hits+misses)
system.cpu.dcache.ReadReq_miss_rate::.cpu.data     0.002143                       # miss rate for ReadReq accesses
system.cpu.dcache.ReadReq_miss_rate::total     0.002143                       # miss rate for ReadReq accesses
system.cpu.dcache.ReadReq_avg_miss_latency::.cpu.data 13720.890225                       # average ReadReq miss latency
system.cpu.dcache.ReadReq_avg_miss_latency::total 13720.890225                       # average ReadReq miss latency
system.cpu.dcache.ReadReq_mshr_hits::.cpu.data         8947                       # number of ReadReq MSHR hits
system.cpu.dcache.ReadReq_mshr_hits::total         8947                       # number of ReadReq MSHR hits
system.cpu.dcache.ReadReq_mshr_misses::.cpu.data        36974                       # number of ReadReq MSHR misses
system.cpu.dcache.ReadReq_mshr_misses::total        36974                       # number of ReadReq MSHR misses
system.cpu.dcache.ReadReq_mshr_miss_latency::.cpu.data    461543500                       # number of ReadReq MSHR miss cycles
system.cpu.dcache.ReadReq_mshr_miss_latency::total    461543500                       # number of ReadReq MSHR miss cycles
system.cpu.dcache.ReadReq_mshr_miss_rate::.cpu.data     0.001725                       # mshr miss rate for ReadReq accesses
system.cpu.dcache.ReadReq_mshr_miss_rate::total     0.001725                       # mshr miss rate for ReadReq accesses
system.cpu.dcache.ReadReq_avg_mshr_miss_latency::.cpu.data 12482.920431                       # average ReadReq mshr miss latency
system.cpu.dcache.ReadReq_avg_mshr_miss_latency::total 12482.920431                       # average ReadReq mshr miss latency
system.cpu.dcache.WriteReq_hits::.cpu.data     14197712                       # number of WriteReq hits
system.cpu.dcache.WriteReq_hits::total       14197712                       # number of WriteReq hits
system.cpu.dcache.WriteReq_misses::.cpu.data        56556                       # number of WriteReq misses
system.cpu.dcache.WriteReq_misses::total        56556                       # number of WriteReq misses
system.cpu.dcache.WriteReq_miss_latency::.cpu.data   4494865500                       # number of WriteReq miss cycles
system.cpu.dcache.WriteReq_miss_latency::total   4494865500                       # number of WriteReq miss cycles
system.cpu.dcache.WriteReq_accesses::.cpu.data     14254268                       # number of WriteReq accesses(hits+misses)
system.cpu.dcache.WriteReq_accesses::total     14254268                       # number of WriteReq accesses(hits+misses)
system.cpu.dcache.WriteReq_miss_rate::.cpu.data     0.003968                       # miss rate for WriteReq accesses
system.cpu.dcache.WriteReq_miss_rate::total     0.003968                       # miss rate for WriteReq accesses
system.cpu.dcache.WriteReq_avg_miss_latency::.cpu.data 79476.368555                       # average WriteReq miss latency
system.cpu.dcache.WriteReq_avg_miss_latency::total 79476.368555                       # average WriteReq miss latency
system.cpu.dcache.WriteReq_mshr_hits::.cpu.data        17075                       # number of WriteReq MSHR hits
system.cpu.dcache.WriteReq_mshr_hits::total        17075                       # number of WriteReq MSHR hits
system.cpu.dcache.WriteReq_mshr_misses::.cpu.data        39481                       # number of WriteReq MSHR misses
system.cpu.dcache.WriteReq_mshr_misses::total        39481                       # number of WriteReq MSHR misses
system.cpu.dcache.WriteReq_mshr_miss_latency::.cpu.data   3403581500                       # number of WriteReq MSHR miss cycles
system.cpu.dcache.WriteReq_mshr_miss_latency::total   3403581500                       # number of WriteReq MSHR miss cycles
system.cpu.dcache.WriteReq_mshr_miss_rate::.cpu.data     0.002770                       # mshr miss rate for WriteReq accesses
system.cpu.dcache.WriteReq_mshr_miss_rate::total     0.002770                       # mshr miss rate for WriteReq accesses
system.cpu.dcache.WriteReq_avg_mshr_miss_latency::.cpu.data 86208.087434                       # average WriteReq mshr miss latency
system.cpu.dcache.WriteReq_avg_mshr_miss_latency::total 86208.087434                       # average WriteReq mshr miss latency
system.cpu.dcache.SoftPFReq_hits::.cpu.data         3170                       # number of SoftPFReq hits
system.cpu.dcache.SoftPFReq_hits::total          3170                       # number of SoftPFReq hits
system.cpu.dcache.SoftPFReq_misses::.cpu.data          191                       # number of SoftPFReq misses
system.cpu.dcache.SoftPFReq_misses::total          191                       # number of SoftPFReq misses
system.cpu.dcache.SoftPFReq_accesses::.cpu.data         3361                       # number of SoftPFReq accesses(hits+misses)
system.cpu.dcache.SoftPFReq_accesses::total         3361                       # number of SoftPFReq accesses(hits+misses)
system.cpu.dcache.SoftPFReq_miss_rate::.cpu.data     0.056828                       # miss rate for SoftPFReq accesses
system.cpu.dcache.SoftPFReq_miss_rate::total     0.056828                       # miss rate for SoftPFReq accesses
system.cpu.dcache.SoftPFReq_mshr_misses::.cpu.data          186                       # number of SoftPFReq MSHR misses
system.cpu.dcache.SoftPFReq_mshr_misses::total          186                       # number of SoftPFReq MSHR misses
system.cpu.dcache.SoftPFReq_mshr_miss_latency::.cpu.data      3094000                       # number of SoftPFReq MSHR miss cycles
system.cpu.dcache.SoftPFReq_mshr_miss_latency::total      3094000                       # number of SoftPFReq MSHR miss cycles
system.cpu.dcache.SoftPFReq_mshr_miss_rate::.cpu.data     0.055341                       # mshr miss rate for SoftPFReq accesses
system.cpu.dcache.SoftPFReq_mshr_miss_rate::total     0.055341                       # mshr miss rate for SoftPFReq accesses
system.cpu.dcache.SoftPFReq_avg_mshr_miss_latency::.cpu.data 16634.408602                       # average SoftPFReq mshr miss latency
system.cpu.dcache.SoftPFReq_avg_mshr_miss_latency::total 16634.408602                       # average SoftPFReq mshr miss latency
system.cpu.dcache.LoadLockedReq_hits::.cpu.data        89080                       # number of LoadLockedReq hits
system.cpu.dcache.LoadLockedReq_hits::total        89080                       # number of LoadLockedReq hits
system.cpu.dcache.LoadLockedReq_accesses::.cpu.data        89080                       # number of LoadLockedReq accesses(hits+misses)
system.cpu.dcache.LoadLockedReq_accesses::total        89080                       # number of LoadLockedReq accesses(hits+misses)
system.cpu.dcache.StoreCondReq_hits::.cpu.data        89080                       # number of StoreCondReq hits
system.cpu.dcache.StoreCondReq_hits::total        89080                       # number of StoreCondReq hits
system.cpu.dcache.StoreCondReq_accesses::.cpu.data        89080                       # number of StoreCondReq accesses(hits+misses)
system.cpu.dcache.StoreCondReq_accesses::total        89080                       # number of StoreCondReq accesses(hits+misses)
system.cpu.dcache.power_state.pwrStateResidencyTicks::UNDEFINED  57381105500                       # Cumulative time (in ticks) in various power states
system.cpu.dcache.tags.tagsinuse           127.963391                       # Cycle average of tags in use
system.cpu.dcache.tags.total_refs            35841741                       # Total number of references to valid blocks.
system.cpu.dcache.tags.sampled_refs             76641                       # Sample count of references to valid blocks.
system.cpu.dcache.tags.avg_refs            467.657533                       # Average number of references to valid blocks.
system.cpu.dcache.tags.warmup_cycle            176500                       # Cycle when the warmup percentage was hit.
system.cpu.dcache.tags.occ_blocks::.cpu.data   127.963391                       # Average occupied blocks per requestor
system.cpu.dcache.tags.occ_percent::.cpu.data     0.999714                       # Average percentage of cache occupancy
system.cpu.dcache.tags.occ_percent::total     0.999714                       # Average percentage of cache occupancy
system.cpu.dcache.tags.occ_task_id_blocks::1024          128                       # Occupied blocks per task id
system.cpu.dcache.tags.age_task_id_blocks_1024::0           13                       # Occupied blocks per task id
system.cpu.dcache.tags.age_task_id_blocks_1024::1           65                       # Occupied blocks per task id
system.cpu.dcache.tags.age_task_id_blocks_1024::2           21                       # Occupied blocks per task id
system.cpu.dcache.tags.age_task_id_blocks_1024::3           11                       # Occupied blocks per task id
system.cpu.dcache.tags.age_task_id_blocks_1024::4           18                       # Occupied blocks per task id
system.cpu.dcache.tags.occ_task_id_percent::1024            1                       # Percentage of cache occupancy per task id
system.cpu.dcache.tags.tag_accesses         143547713                       # Number of tag accesses
system.cpu.dcache.tags.data_accesses        143547713                       # Number of data accesses
system.cpu.dcache.tags.power_state.pwrStateResidencyTicks::UNDEFINED  57381105500                       # Cumulative time (in ticks) in various power states
system.cpu.dtb.instHits                             0                       # ITB inst hits
system.cpu.dtb.instMisses                           0                       # ITB inst misses
system.cpu.dtb.readHits                             0                       # DTB read hits
system.cpu.dtb.readMisses                           0                       # DTB read misses
system.cpu.dtb.writeHits                            0                       # DTB write hits
system.cpu.dtb.writeMisses                          0                       # DTB write misses
system.cpu.dtb.inserts                              0                       # Number of times an entry is inserted into the TLB
system.cpu.dtb.flushTlb                             0                       # Number of times complete TLB was flushed
system.cpu.dtb.flushTlbMva                          0                       # Number of times TLB was flushed by MVA
system.cpu.dtb.flushTlbMvaAsid                      0                       # Number of times TLB was flushed by MVA & ASID
system.cpu.dtb.flushTlbAsid                         0                       # Number of times TLB was flushed by ASID
system.cpu.dtb.flushedEntries                       0                       # Number of entries that have been flushed from TLB
system.cpu.dtb.alignFaults                          0                       # Number of TLB faults due to alignment restrictions
system.cpu.dtb.prefetchFaults                       0                       # Number of TLB faults due to prefetch
system.cpu.dtb.domainFaults                         0                       # Number of TLB faults due to domain restrictions
system.cpu.dtb.permsFaults                          0                       # Number of TLB faults due to permissions restrictions
system.cpu.dtb.readAccesses                         0                       # DTB read accesses
system.cpu.dtb.writeAccesses                        0                       # DTB write accesses
system.cpu.dtb.instAccesses                         0                       # ITB inst accesses
system.cpu.dtb.hits                                 0                       # Total TLB (inst and data) hits
system.cpu.dtb.misses                               0                       # Total TLB (inst and data) misses
system.cpu.dtb.accesses                             0                       # Total TLB (inst and data) accesses
system.cpu.dtb.stage2_mmu.stage2_tlb.instHits            0                       # ITB inst hits
system.cpu.dtb.stage2_mmu.stage2_tlb.instMisses            0                       # ITB inst misses
system.cpu.dtb.stage2_mmu.stage2_tlb.readHits            0                       # DTB read hits
system.cpu.dtb.stage2_mmu.stage2_tlb.readMisses            0                       # DTB read misses
system.cpu.dtb.stage2_mmu.stage2_tlb.writeHits            0                       # DTB write hits
system.cpu.dtb.stage2_mmu.stage2_tlb.writeMisses            0                       # DTB write misses
system.cpu.dtb.stage2_mmu.stage2_tlb.inserts            0                       # Number of times an entry is inserted into the TLB
system.cpu.dtb.stage2_mmu.stage2_tlb.flushTlb            0                       # Number of times complete TLB was flushed
system.cpu.dtb.stage2_mmu.stage2_tlb.flushTlbMva            0                       # Number of times TLB was flushed by MVA
system.cpu.dtb.stage2_mmu.stage2_tlb.flushTlbMvaAsid            0                       # Number of times TLB was flushed by MVA & ASID
system.cpu.dtb.stage2_mmu.stage2_tlb.flushTlbAsid            0                       # Number of times TLB was flushed by ASID
system.cpu.dtb.stage2_mmu.stage2_tlb.flushedEntries            0                       # Number of entries that have been flushed from TLB
system.cpu.dtb.stage2_mmu.stage2_tlb.alignFaults            0                       # Number of TLB faults due to alignment restrictions
system.cpu.dtb.stage2_mmu.stage2_tlb.prefetchFaults            0                       # Number of TLB faults due to prefetch
system.cpu.dtb.stage2_mmu.stage2_tlb.domainFaults            0                       # Number of TLB faults due to domain restrictions
system.cpu.dtb.stage2_mmu.stage2_tlb.permsFaults            0                       # Number of TLB faults due to permissions restrictions
system.cpu.dtb.stage2_mmu.stage2_tlb.readAccesses            0                       # DTB read accesses
system.cpu.dtb.stage2_mmu.stage2_tlb.writeAccesses            0                       # DTB write accesses
system.cpu.dtb.stage2_mmu.stage2_tlb.instAccesses            0                       # ITB inst accesses
system.cpu.dtb.stage2_mmu.stage2_tlb.hits            0                       # Total TLB (inst and data) hits
system.cpu.dtb.stage2_mmu.stage2_tlb.misses            0                       # Total TLB (inst and data) misses
system.cpu.dtb.stage2_mmu.stage2_tlb.accesses            0                       # Total TLB (inst and data) accesses
system.cpu.dtb.stage2_mmu.stage2_tlb.walker.walks            0                       # Table walker walks requested
system.cpu.dtb.stage2_mmu.stage2_tlb.walker.requestOrigin_Requested::Data            0                       # Table walker requests started/completed, data/inst
system.cpu.dtb.stage2_mmu.stage2_tlb.walker.requestOrigin_Requested::Inst            0                       # Table walker requests started/completed, data/inst
system.cpu.dtb.stage2_mmu.stage2_tlb.walker.requestOrigin_Requested::total            0                       # Table walker requests started/completed, data/inst
system.cpu.dtb.stage2_mmu.stage2_tlb.walker.requestOrigin_Completed::Data            0                       # Table walker requests started/completed, data/inst
system.cpu.dtb.stage2_mmu.stage2_tlb.walker.requestOrigin_Completed::Inst            0                       # Table walker requests started/completed, data/inst
system.cpu.dtb.stage2_mmu.stage2_tlb.walker.requestOrigin_Completed::total            0                       # Table walker requests started/completed, data/inst
system.cpu.dtb.stage2_mmu.stage2_tlb.walker.requestOrigin::total            0                       # Table walker requests started/completed, data/inst
system.cpu.dtb.stage2_mmu.stage2_tlb.walker.power_state.pwrStateResidencyTicks::UNDEFINED  57381105500                       # Cumulative time (in ticks) in various power states
system.cpu.dtb.walker.walks                         0                       # Table walker walks requested
system.cpu.dtb.walker.requestOrigin_Requested::Data            0                       # Table walker requests started/completed, data/inst
system.cpu.dtb.walker.requestOrigin_Requested::Inst            0                       # Table walker requests started/completed, data/inst
system.cpu.dtb.walker.requestOrigin_Requested::total            0                       # Table walker requests started/completed, data/inst
system.cpu.dtb.walker.requestOrigin_Completed::Data            0                       # Table walker requests started/completed, data/inst
system.cpu.dtb.walker.requestOrigin_Completed::Inst            0                       # Table walker requests started/completed, data/inst
system.cpu.dtb.walker.requestOrigin_Completed::total            0                       # Table walker requests started/completed, data/inst
system.cpu.dtb.walker.requestOrigin::total            0                       # Table walker requests started/completed, data/inst
system.cpu.dtb.walker.power_state.pwrStateResidencyTicks::UNDEFINED  57381105500                       # Cumulative time (in ticks) in various power states
system.cpu.fetch2.intInstructions            49240021                       # Number of integer instructions successfully decoded
system.cpu.fetch2.fpInstructions                    0                       # Number of floating point instructions successfully decoded
system.cpu.fetch2.vecInstructions                   0                       # Number of SIMD instructions successfully decoded
system.cpu.fetch2.loadInstructions           17106682                       # Number of memory load instructions successfully decoded
system.cpu.fetch2.storeInstructions           9764096                       # Number of memory store instructions successfully decoded
system.cpu.fetch2.amoInstructions                   0                       # Number of memory atomic instructions successfully decoded
system.cpu.icache.demand_hits::.cpu.inst     28363463                       # number of demand (read+write) hits
system.cpu.icache.demand_hits::total         28363463                       # number of demand (read+write) hits
system.cpu.icache.overall_hits::.cpu.inst     28363463                       # number of overall hits
system.cpu.icache.overall_hits::total        28363463                       # number of overall hits
system.cpu.icache.demand_misses::.cpu.inst          770                       # number of demand (read+write) misses
system.cpu.icache.demand_misses::total            770                       # number of demand (read+write) misses
system.cpu.icache.overall_misses::.cpu.inst          770                       # number of overall misses
system.cpu.icache.overall_misses::total           770                       # number of overall misses
system.cpu.icache.demand_miss_latency::.cpu.inst     44141000                       # number of demand (read+write) miss cycles
system.cpu.icache.demand_miss_latency::total     44141000                       # number of demand (read+write) miss cycles
system.cpu.icache.overall_miss_latency::.cpu.inst     44141000                       # number of overall miss cycles
system.cpu.icache.overall_miss_latency::total     44141000                       # number of overall miss cycles
system.cpu.icache.demand_accesses::.cpu.inst     28364233                       # number of demand (read+write) accesses
system.cpu.icache.demand_accesses::total     28364233                       # number of demand (read+write) accesses
system.cpu.icache.overall_accesses::.cpu.inst     28364233                       # number of overall (read+write) accesses
system.cpu.icache.overall_accesses::total     28364233                       # number of overall (read+write) accesses
system.cpu.icache.demand_miss_rate::.cpu.inst     0.000027                       # miss rate for demand accesses
system.cpu.icache.demand_miss_rate::total     0.000027                       # miss rate for demand accesses
system.cpu.icache.overall_miss_rate::.cpu.inst     0.000027                       # miss rate for overall accesses
system.cpu.icache.overall_miss_rate::total     0.000027                       # miss rate for overall accesses
system.cpu.icache.demand_avg_miss_latency::.cpu.inst 57325.974026                       # average overall miss latency
system.cpu.icache.demand_avg_miss_latency::total 57325.974026                       # average overall miss latency
system.cpu.icache.overall_avg_miss_latency::.cpu.inst 57325.974026                       # average overall miss latency
system.cpu.icache.overall_avg_miss_latency::total 57325.974026                       # average overall miss latency
system.cpu.icache.blocked_cycles::no_mshrs            0                       # number of cycles access was blocked
system.cpu.icache.blocked_cycles::no_targets            0                       # number of cycles access was blocked
system.cpu.icache.blocked::no_mshrs                 0                       # number of cycles access was blocked
system.cpu.icache.blocked::no_targets               0                       # number of cycles access was blocked
system.cpu.icache.avg_blocked_cycles::no_mshrs          nan                       # average number of cycles each access was blocked
system.cpu.icache.avg_blocked_cycles::no_targets          nan                       # average number of cycles each access was blocked
system.cpu.icache.writebacks::.writebacks          314                       # number of writebacks
system.cpu.icache.writebacks::total               314                       # number of writebacks
system.cpu.icache.demand_mshr_misses::.cpu.inst          770                       # number of demand (read+write) MSHR misses
system.cpu.icache.demand_mshr_misses::total          770                       # number of demand (read+write) MSHR misses
system.cpu.icache.overall_mshr_misses::.cpu.inst          770                       # number of overall MSHR misses
system.cpu.icache.overall_mshr_misses::total          770                       # number of overall MSHR misses
system.cpu.icache.demand_mshr_miss_latency::.cpu.inst     43371000                       # number of demand (read+write) MSHR miss cycles
system.cpu.icache.demand_mshr_miss_latency::total     43371000                       # number of demand (read+write) MSHR miss cycles
system.cpu.icache.overall_mshr_miss_latency::.cpu.inst     43371000                       # number of overall MSHR miss cycles
system.cpu.icache.overall_mshr_miss_latency::total     43371000                       # number of overall MSHR miss cycles
system.cpu.icache.demand_mshr_miss_rate::.cpu.inst     0.000027                       # mshr miss rate for demand accesses
system.cpu.icache.demand_mshr_miss_rate::total     0.000027                       # mshr miss rate for demand accesses
system.cpu.icache.overall_mshr_miss_rate::.cpu.inst     0.000027                       # mshr miss rate for overall accesses
system.cpu.icache.overall_mshr_miss_rate::total     0.000027                       # mshr miss rate for overall accesses
system.cpu.icache.demand_avg_mshr_miss_latency::.cpu.inst 56325.974026                       # average overall mshr miss latency
system.cpu.icache.demand_avg_mshr_miss_latency::total 56325.974026                       # average overall mshr miss latency
system.cpu.icache.overall_avg_mshr_miss_latency::.cpu.inst 56325.974026                       # average overall mshr miss latency
system.cpu.icache.overall_avg_mshr_miss_latency::total 56325.974026                       # average overall mshr miss latency
system.cpu.icache.replacements                    314                       # number of replacements
system.cpu.icache.ReadReq_hits::.cpu.inst     28363463                       # number of ReadReq hits
system.cpu.icache.ReadReq_hits::total        28363463                       # number of ReadReq hits
system.cpu.icache.ReadReq_misses::.cpu.inst          770                       # number of ReadReq misses
system.cpu.icache.ReadReq_misses::total           770                       # number of ReadReq misses
system.cpu.icache.ReadReq_miss_latency::.cpu.inst     44141000                       # number of ReadReq miss cycles
system.cpu.icache.ReadReq_miss_latency::total     44141000                       # number of ReadReq miss cycles
system.cpu.icache.ReadReq_accesses::.cpu.inst     28364233                       # number of ReadReq accesses(hits+misses)
system.cpu.icache.ReadReq_accesses::total     28364233                       # number of ReadReq accesses(hits+misses)
system.cpu.icache.ReadReq_miss_rate::.cpu.inst     0.000027                       # miss rate for ReadReq accesses
system.cpu.icache.ReadReq_miss_rate::total     0.000027                       # miss rate for ReadReq accesses
system.cpu.icache.ReadReq_avg_miss_latency::.cpu.inst 57325.974026                       # average ReadReq miss latency
system.cpu.icache.ReadReq_avg_miss_latency::total 57325.974026                       # average ReadReq miss latency
system.cpu.icache.ReadReq_mshr_misses::.cpu.inst          770                       # number of ReadReq MSHR misses
system.cpu.icache.ReadReq_mshr_misses::total          770                       # number of ReadReq MSHR misses
system.cpu.icache.ReadReq_mshr_miss_latency::.cpu.inst     43371000                       # number of ReadReq MSHR miss cycles
system.cpu.icache.ReadReq_mshr_miss_latency::total     43371000                       # number of ReadReq MSHR miss cycles
system.cpu.icache.ReadReq_mshr_miss_rate::.cpu.inst     0.000027                       # mshr miss rate for ReadReq accesses
system.cpu.icache.ReadReq_mshr_miss_rate::total     0.000027                       # mshr miss rate for ReadReq accesses
system.cpu.icache.ReadReq_avg_mshr_miss_latency::.cpu.inst 56325.974026                       # average ReadReq mshr miss latency
system.cpu.icache.ReadReq_avg_mshr_miss_latency::total 56325.974026                       # average ReadReq mshr miss latency
system.cpu.icache.power_state.pwrStateResidencyTicks::UNDEFINED  57381105500                       # Cumulative time (in ticks) in various power states
system.cpu.icache.tags.tagsinuse           455.240821                       # Cycle average of tags in use
system.cpu.icache.tags.total_refs            28364233                       # Total number of references to valid blocks.
system.cpu.icache.tags.sampled_refs               770                       # Sample count of references to valid blocks.
system.cpu.icache.tags.avg_refs          36836.666234                       # Average number of references to valid blocks.
system.cpu.icache.tags.warmup_cycle             87500                       # Cycle when the warmup percentage was hit.
system.cpu.icache.tags.occ_blocks::.cpu.inst   455.240821                       # Average occupied blocks per requestor
system.cpu.icache.tags.occ_percent::.cpu.inst     0.444571                       # Average percentage of cache occupancy
system.cpu.icache.tags.occ_percent::total     0.444571                       # Average percentage of cache occupancy
system.cpu.icache.tags.occ_task_id_blocks::1024          456                       # Occupied blocks per task id
system.cpu.icache.tags.age_task_id_blocks_1024::2            1                       # Occupied blocks per task id
system.cpu.icache.tags.age_task_id_blocks_1024::4          455                       # Occupied blocks per task id
system.cpu.icache.tags.occ_task_id_percent::1024     0.445312                       # Percentage of cache occupancy per task id
system.cpu.icache.tags.tag_accesses          28365003                       # Number of tag accesses
system.cpu.icache.tags.data_accesses         28365003                       # Number of data accesses
system.cpu.icache.tags.power_state.pwrStateResidencyTicks::UNDEFINED  57381105500                       # Cumulative time (in ticks) in various power states
system.cpu.itb.instHits                             0                       # ITB inst hits
system.cpu.itb.instMisses                           0                       # ITB inst misses
system.cpu.itb.readHits                             0                       # DTB read hits
system.cpu.itb.readMisses                           0                       # DTB read misses
system.cpu.itb.writeHits                            0                       # DTB write hits
system.cpu.itb.writeMisses                          0                       # DTB write misses
system.cpu.itb.inserts                              0                       # Number of times an entry is inserted into the TLB
system.cpu.itb.flushTlb                             0                       # Number of times complete TLB was flushed
system.cpu.itb.flushTlbMva                          0                       # Number of times TLB was flushed by MVA
system.cpu.itb.flushTlbMvaAsid                      0                       # Number of times TLB was flushed by MVA & ASID
system.cpu.itb.flushTlbAsid                         0                       # Number of times TLB was flushed by ASID
system.cpu.itb.flushedEntries                       0                       # Number of entries that have been flushed from TLB
system.cpu.itb.alignFaults                          0                       # Number of TLB faults due to alignment restrictions
system.cpu.itb.prefetchFaults                       0                       # Number of TLB faults due to prefetch
system.cpu.itb.domainFaults                         0                       # Number of TLB faults due to domain restrictions
system.cpu.itb.permsFaults                          0                       # Number of TLB faults due to permissions restrictions
system.cpu.itb.readAccesses                         0                       # DTB read accesses
system.cpu.itb.writeAccesses                        0                       # DTB write accesses
system.cpu.itb.instAccesses                         0                       # ITB inst accesses
system.cpu.itb.hits                                 0                       # Total TLB (inst and data) hits
system.cpu.itb.misses                               0                       # Total TLB (inst and data) misses
system.cpu.itb.accesses                             0                       # Total TLB (inst and data) accesses
system.cpu.itb.stage2_mmu.stage2_tlb.instHits            0                       # ITB inst hits
system.cpu.itb.stage2_mmu.stage2_tlb.instMisses            0                       # ITB inst misses
system.cpu.itb.stage2_mmu.stage2_tlb.readHits            0                       # DTB read hits
system.cpu.itb.stage2_mmu.stage2_tlb.readMisses            0                       # DTB read misses
system.cpu.itb.stage2_mmu.stage2_tlb.writeHits            0                       # DTB write hits
system.cpu.itb.stage2_mmu.stage2_tlb.writeMisses            0                       # DTB write misses
system.cpu.itb.stage2_mmu.stage2_tlb.inserts            0                       # Number of times an entry is inserted into the TLB
system.cpu.itb.stage2_mmu.stage2_tlb.flushTlb            0                       # Number of times complete TLB was flushed
system.cpu.itb.stage2_mmu.stage2_tlb.flushTlbMva            0                       # Number of times TLB was flushed by MVA
system.cpu.itb.stage2_mmu.stage2_tlb.flushTlbMvaAsid            0                       # Number of times TLB was flushed by MVA & ASID
system.cpu.itb.stage2_mmu.stage2_tlb.flushTlbAsid            0                       # Number of times TLB was flushed by ASID
system.cpu.itb.stage2_mmu.stage2_tlb.flushedEntries            0                       # Number of entries that have been flushed from TLB
system.cpu.itb.stage2_mmu.stage2_tlb.alignFaults            0                       # Number of TLB faults due to alignment restrictions
system.cpu.itb.stage2_mmu.stage2_tlb.prefetchFaults            0                       # Number of TLB faults due to prefetch
system.cpu.itb.stage2_mmu.stage2_tlb.domainFaults            0                       # Number of TLB faults due to domain restrictions
system.cpu.itb.stage2_mmu.stage2_tlb.permsFaults            0                       # Number of TLB faults due to permissions restrictions
system.cpu.itb.stage2_mmu.stage2_tlb.readAccesses            0                       # DTB read accesses
system.cpu.itb.stage2_mmu.stage2_tlb.writeAccesses            0                       # DTB write accesses
system.cpu.itb.stage2_mmu.stage2_tlb.instAccesses            0                       # ITB inst accesses
system.cpu.itb.stage2_mmu.stage2_tlb.hits            0                       # Total TLB (inst and data) hits
system.cpu.itb.stage2_mmu.stage2_tlb.misses            0                       # Total TLB (inst and data) misses
system.cpu.itb.stage2_mmu.stage2_tlb.accesses            0                       # Total TLB (inst and data) accesses
system.cpu.itb.stage2_mmu.stage2_tlb.walker.walks            0                       # Table walker walks requested
system.cpu.itb.stage2_mmu.stage2_tlb.walker.requestOrigin_Requested::Data            0                       # Table walker requests started/completed, data/inst
system.cpu.itb.stage2_mmu.stage2_tlb.walker.requestOrigin_Requested::Inst            0                       # Table walker requests started/completed, data/inst
system.cpu.itb.stage2_mmu.stage2_tlb.walker.requestOrigin_Requested::total            0                       # Table walker requests started/completed, data/inst
system.cpu.itb.stage2_mmu.stage2_tlb.walker.requestOrigin_Completed::Data            0                       # Table walker requests started/completed, data/inst
system.cpu.itb.stage2_mmu.stage2_tlb.walker.requestOrigin_Completed::Inst            0                       # Table walker requests started/completed, data/inst
system.cpu.itb.stage2_mmu.stage2_tlb.walker.requestOrigin_Completed::total            0                       # Table walker requests started/completed, data/inst
system.cpu.itb.stage2_mmu.stage2_tlb.walker.requestOrigin::total            0                       # Table walker requests started/completed, data/inst
system.cpu.itb.stage2_mmu.stage2_tlb.walker.power_state.pwrStateResidencyTicks::UNDEFINED  57381105500                       # Cumulative time (in ticks) in various power states
system.cpu.itb.walker.walks                         0                       # Table walker walks requested
system.cpu.itb.walker.requestOrigin_Requested::Data            0                       # Table walker requests started/completed, data/inst
system.cpu.itb.walker.requestOrigin_Requested::Inst            0                       # Table walker requests started/completed, data/inst
system.cpu.itb.walker.requestOrigin_Requested::total            0                       # Table walker requests started/completed, data/inst
system.cpu.itb.walker.requestOrigin_Completed::Data            0                       # Table walker requests started/completed, data/inst
system.cpu.itb.walker.requestOrigin_Completed::Inst            0                       # Table walker requests started/completed, data/inst
system.cpu.itb.walker.requestOrigin_Completed::total            0                       # Table walker requests started/completed, data/inst
system.cpu.itb.walker.requestOrigin::total            0                       # Table walker requests started/completed, data/inst
system.cpu.itb.walker.power_state.pwrStateResidencyTicks::UNDEFINED  57381105500                       # Cumulative time (in ticks) in various power states
system.cpu.power_state.pwrStateResidencyTicks::ON  57381105500                       # Cumulative time (in ticks) in various power states
system.cpu.thread0.numInsts                 100000001                       # Number of Instructions committed
system.cpu.thread0.numOps                   109431277                       # Number of Ops committed
system.cpu.thread0.numMemRefs                       0                       # Number of Memory References
system.cpu_clk_domain.clock                       500                       # Clock period in ticks
system.cpu_voltage_domain.voltage                   1                       # Voltage in Volts
system.l2.demand_hits::.cpu.inst                  249                       # number of demand (read+write) hits
system.l2.demand_hits::.cpu.data                37596                       # number of demand (read+write) hits
system.l2.demand_hits::total                    37845                       # number of demand (read+write) hits
system.l2.overall_hits::.cpu.inst                 249                       # number of overall hits
system.l2.overall_hits::.cpu.data               37596                       # number of overall hits
system.l2.overall_hits::total                   37845                       # number of overall hits
system.l2.demand_misses::.cpu.inst                521                       # number of demand (read+write) misses
system.l2.demand_misses::.cpu.data              39045                       # number of demand (read+write) misses
system.l2.demand_misses::total                  39566                       # number of demand (read+write) misses
system.l2.overall_misses::.cpu.inst               521                       # number of overall misses
system.l2.overall_misses::.cpu.data             39045                       # number of overall misses
system.l2.overall_misses::total                 39566                       # number of overall misses
system.l2.demand_miss_latency::.cpu.inst     39594000                       # number of demand (read+write) miss cycles
system.l2.demand_miss_latency::.cpu.data   3352195500                       # number of demand (read+write) miss cycles
system.l2.demand_miss_latency::total       3391789500                       # number of demand (read+write) miss cycles
system.l2.overall_miss_latency::.cpu.inst     39594000                       # number of overall miss cycles
system.l2.overall_miss_latency::.cpu.data   3352195500                       # number of overall miss cycles
system.l2.overall_miss_latency::total      3391789500                       # number of overall miss cycles
system.l2.demand_accesses::.cpu.inst              770                       # number of demand (read+write) accesses
system.l2.demand_accesses::.cpu.data            76641                       # number of demand (read+write) accesses
system.l2.demand_accesses::total                77411                       # number of demand (read+write) accesses
system.l2.overall_accesses::.cpu.inst             770                       # number of overall (read+write) accesses
system.l2.overall_accesses::.cpu.data           76641                       # number of overall (read+write) accesses
system.l2.overall_accesses::total               77411                       # number of overall (read+write) accesses
system.l2.demand_miss_rate::.cpu.inst        0.676623                       # miss rate for demand accesses
system.l2.demand_miss_rate::.cpu.data        0.509453                       # miss rate for demand accesses
system.l2.demand_miss_rate::total            0.511116                       # miss rate for demand accesses
system.l2.overall_miss_rate::.cpu.inst       0.676623                       # miss rate for overall accesses
system.l2.overall_miss_rate::.cpu.data       0.509453                       # miss rate for overall accesses
system.l2.overall_miss_rate::total           0.511116                       # miss rate for overall accesses
system.l2.demand_avg_miss_latency::.cpu.inst 75996.161228                       # average overall miss latency
system.l2.demand_avg_miss_latency::.cpu.data 85854.667691                       # average overall miss latency
system.l2.demand_avg_miss_latency::total 85724.852146                       # average overall miss latency
system.l2.overall_avg_miss_latency::.cpu.inst 75996.161228                       # average overall miss latency
system.l2.overall_avg_miss_latency::.cpu.data 85854.667691                       # average overall miss latency
system.l2.overall_avg_miss_latency::total 85724.852146                       # average overall miss latency
system.l2.blocked_cycles::no_mshrs                  0                       # number of cycles access was blocked
system.l2.blocked_cycles::no_targets                0                       # number of cycles access was blocked
system.l2.blocked::no_mshrs                         0                       # number of cycles access was blocked
system.l2.blocked::no_targets                       0                       # number of cycles access was blocked
system.l2.avg_blocked_cycles::no_mshrs            nan                       # average number of cycles each access was blocked
system.l2.avg_blocked_cycles::no_targets          nan                       # average number of cycles each access was blocked
system.l2.demand_mshr_hits::.cpu.inst               1                       # number of demand (read+write) MSHR hits
system.l2.demand_mshr_hits::.cpu.data               5                       # number of demand (read+write) MSHR hits
system.l2.demand_mshr_hits::total                   6                       # number of demand (read+write) MSHR hits
system.l2.overall_mshr_hits::.cpu.inst              1                       # number of overall MSHR hits
system.l2.overall_mshr_hits::.cpu.data              5                       # number of overall MSHR hits
system.l2.overall_mshr_hits::total                  6                       # number of overall MSHR hits
system.l2.demand_mshr_misses::.cpu.inst           520                       # number of demand (read+write) MSHR misses
system.l2.demand_mshr_misses::.cpu.data         39040                       # number of demand (read+write) MSHR misses
system.l2.demand_mshr_misses::total             39560                       # number of demand (read+write) MSHR misses
system.l2.overall_mshr_misses::.cpu.inst          520                       # number of overall MSHR misses
system.l2.overall_mshr_misses::.cpu.data        39040                       # number of overall MSHR misses
system.l2.overall_mshr_misses::total            39560                       # number of overall MSHR misses
system.l2.demand_mshr_miss_latency::.cpu.inst     34096500                       # number of demand (read+write) MSHR miss cycles
system.l2.demand_mshr_miss_latency::.cpu.data   2961470000                       # number of demand (read+write) MSHR miss cycles
system.l2.demand_mshr_miss_latency::total   2995566500                       # number of demand (read+write) MSHR miss cycles
system.l2.overall_mshr_miss_latency::.cpu.inst     34096500                       # number of overall MSHR miss cycles
system.l2.overall_mshr_miss_latency::.cpu.data   2961470000                       # number of overall MSHR miss cycles
system.l2.overall_mshr_miss_latency::total   2995566500                       # number of overall MSHR miss cycles
system.l2.demand_mshr_miss_rate::.cpu.inst     0.675325                       # mshr miss rate for demand accesses
system.l2.demand_mshr_miss_rate::.cpu.data     0.509388                       # mshr miss rate for demand accesses
system.l2.demand_mshr_miss_rate::total       0.511038                       # mshr miss rate for demand accesses
system.l2.overall_mshr_miss_rate::.cpu.inst     0.675325                       # mshr miss rate for overall accesses
system.l2.overall_mshr_miss_rate::.cpu.data     0.509388                       # mshr miss rate for overall accesses
system.l2.overall_mshr_miss_rate::total      0.511038                       # mshr miss rate for overall accesses
system.l2.demand_avg_mshr_miss_latency::.cpu.inst 65570.192308                       # average overall mshr miss latency
system.l2.demand_avg_mshr_miss_latency::.cpu.data 75857.325820                       # average overall mshr miss latency
system.l2.demand_avg_mshr_miss_latency::total 75722.105662                       # average overall mshr miss latency
system.l2.overall_avg_mshr_miss_latency::.cpu.inst 65570.192308                       # average overall mshr miss latency
system.l2.overall_avg_mshr_miss_latency::.cpu.data 75857.325820                       # average overall mshr miss latency
system.l2.overall_avg_mshr_miss_latency::total 75722.105662                       # average overall mshr miss latency
system.l2.replacements                              0                       # number of replacements
system.l2.WritebackDirty_hits::.writebacks        65596                       # number of WritebackDirty hits
system.l2.WritebackDirty_hits::total            65596                       # number of WritebackDirty hits
system.l2.WritebackDirty_accesses::.writebacks        65596                       # number of WritebackDirty accesses(hits+misses)
system.l2.WritebackDirty_accesses::total        65596                       # number of WritebackDirty accesses(hits+misses)
system.l2.WritebackClean_hits::.writebacks          310                       # number of WritebackClean hits
system.l2.WritebackClean_hits::total              310                       # number of WritebackClean hits
system.l2.WritebackClean_accesses::.writebacks          310                       # number of WritebackClean accesses(hits+misses)
system.l2.WritebackClean_accesses::total          310                       # number of WritebackClean accesses(hits+misses)
system.l2.ReadExReq_hits::.cpu.data               671                       # number of ReadExReq hits
system.l2.ReadExReq_hits::total                   671                       # number of ReadExReq hits
system.l2.ReadExReq_misses::.cpu.data           38810                       # number of ReadExReq misses
system.l2.ReadExReq_misses::total               38810                       # number of ReadExReq misses
system.l2.ReadExReq_miss_latency::.cpu.data   3331438000                       # number of ReadExReq miss cycles
system.l2.ReadExReq_miss_latency::total    3331438000                       # number of ReadExReq miss cycles
system.l2.ReadExReq_accesses::.cpu.data         39481                       # number of ReadExReq accesses(hits+misses)
system.l2.ReadExReq_accesses::total             39481                       # number of ReadExReq accesses(hits+misses)
system.l2.ReadExReq_miss_rate::.cpu.data     0.983004                       # miss rate for ReadExReq accesses
system.l2.ReadExReq_miss_rate::total         0.983004                       # miss rate for ReadExReq accesses
system.l2.ReadExReq_avg_miss_latency::.cpu.data 85839.680495                       # average ReadExReq miss latency
system.l2.ReadExReq_avg_miss_latency::total 85839.680495                       # average ReadExReq miss latency
system.l2.ReadExReq_mshr_misses::.cpu.data        38810                       # number of ReadExReq MSHR misses
system.l2.ReadExReq_mshr_misses::total          38810                       # number of ReadExReq MSHR misses
system.l2.ReadExReq_mshr_miss_latency::.cpu.data   2943338000                       # number of ReadExReq MSHR miss cycles
system.l2.ReadExReq_mshr_miss_latency::total   2943338000                       # number of ReadExReq MSHR miss cycles
system.l2.ReadExReq_mshr_miss_rate::.cpu.data     0.983004                       # mshr miss rate for ReadExReq accesses
system.l2.ReadExReq_mshr_miss_rate::total     0.983004                       # mshr miss rate for ReadExReq accesses
system.l2.ReadExReq_avg_mshr_miss_latency::.cpu.data 75839.680495                       # average ReadExReq mshr miss latency
system.l2.ReadExReq_avg_mshr_miss_latency::total 75839.680495                       # average ReadExReq mshr miss latency
system.l2.ReadCleanReq_hits::.cpu.inst            249                       # number of ReadCleanReq hits
system.l2.ReadCleanReq_hits::total                249                       # number of ReadCleanReq hits
system.l2.ReadCleanReq_misses::.cpu.inst          521                       # number of ReadCleanReq misses
system.l2.ReadCleanReq_misses::total              521                       # number of ReadCleanReq misses
system.l2.ReadCleanReq_miss_latency::.cpu.inst     39594000                       # number of ReadCleanReq miss cycles
system.l2.ReadCleanReq_miss_latency::total     39594000                       # number of ReadCleanReq miss cycles
system.l2.ReadCleanReq_accesses::.cpu.inst          770                       # number of ReadCleanReq accesses(hits+misses)
system.l2.ReadCleanReq_accesses::total            770                       # number of ReadCleanReq accesses(hits+misses)
system.l2.ReadCleanReq_miss_rate::.cpu.inst     0.676623                       # miss rate for ReadCleanReq accesses
system.l2.ReadCleanReq_miss_rate::total      0.676623                       # miss rate for ReadCleanReq accesses
system.l2.ReadCleanReq_avg_miss_latency::.cpu.inst 75996.161228                       # average ReadCleanReq miss latency
system.l2.ReadCleanReq_avg_miss_latency::total 75996.161228                       # average ReadCleanReq miss latency
system.l2.ReadCleanReq_mshr_hits::.cpu.inst            1                       # number of ReadCleanReq MSHR hits
system.l2.ReadCleanReq_mshr_hits::total             1                       # number of ReadCleanReq MSHR hits
system.l2.ReadCleanReq_mshr_misses::.cpu.inst          520                       # number of ReadCleanReq MSHR misses
system.l2.ReadCleanReq_mshr_misses::total          520                       # number of ReadCleanReq MSHR misses
system.l2.ReadCleanReq_mshr_miss_latency::.cpu.inst     34096500                       # number of ReadCleanReq MSHR miss cycles
system.l2.ReadCleanReq_mshr_miss_latency::total     34096500                       # number of ReadCleanReq MSHR miss cycles
system.l2.ReadCleanReq_mshr_miss_rate::.cpu.inst     0.675325                       # mshr miss rate for ReadCleanReq accesses
system.l2.ReadCleanReq_mshr_miss_rate::total     0.675325                       # mshr miss rate for ReadCleanReq accesses
system.l2.ReadCleanReq_avg_mshr_miss_latency::.cpu.inst 65570.192308                       # average ReadCleanReq mshr miss latency
system.l2.ReadCleanReq_avg_mshr_miss_latency::total 65570.192308                       # average ReadCleanReq mshr miss latency
system.l2.ReadSharedReq_hits::.cpu.data         36925                       # number of ReadSharedReq hits
system.l2.ReadSharedReq_hits::total             36925                       # number of ReadSharedReq hits
system.l2.ReadSharedReq_misses::.cpu.data          235                       # number of ReadSharedReq misses
system.l2.ReadSharedReq_misses::total             235                       # number of ReadSharedReq misses
system.l2.ReadSharedReq_miss_latency::.cpu.data     20757500                       # number of ReadSharedReq miss cycles
system.l2.ReadSharedReq_miss_latency::total     20757500                       # number of ReadSharedReq miss cycles
system.l2.ReadSharedReq_accesses::.cpu.data        37160                       # number of ReadSharedReq accesses(hits+misses)
system.l2.ReadSharedReq_accesses::total         37160                       # number of ReadSharedReq accesses(hits+misses)
system.l2.ReadSharedReq_miss_rate::.cpu.data     0.006324                       # miss rate for ReadSharedReq accesses
system.l2.ReadSharedReq_miss_rate::total     0.006324                       # miss rate for ReadSharedReq accesses
system.l2.ReadSharedReq_avg_miss_latency::.cpu.data 88329.787234                       # average ReadSharedReq miss latency
system.l2.ReadSharedReq_avg_miss_latency::total 88329.787234                       # average ReadSharedReq miss latency
system.l2.ReadSharedReq_mshr_hits::.cpu.data            5                       # number of ReadSharedReq MSHR hits
system.l2.ReadSharedReq_mshr_hits::total            5                       # number of ReadSharedReq MSHR hits
system.l2.ReadSharedReq_mshr_misses::.cpu.data          230                       # number of ReadSharedReq MSHR misses
system.l2.ReadSharedReq_mshr_misses::total          230                       # number of ReadSharedReq MSHR misses
system.l2.ReadSharedReq_mshr_miss_latency::.cpu.data     18132000                       # number of ReadSharedReq MSHR miss cycles
system.l2.ReadSharedReq_mshr_miss_latency::total     18132000                       # number of ReadSharedReq MSHR miss cycles
system.l2.ReadSharedReq_mshr_miss_rate::.cpu.data     0.006189                       # mshr miss rate for ReadSharedReq accesses
system.l2.ReadSharedReq_mshr_miss_rate::total     0.006189                       # mshr miss rate for ReadSharedReq accesses
system.l2.ReadSharedReq_avg_mshr_miss_latency::.cpu.data 78834.782609                       # average ReadSharedReq mshr miss latency
system.l2.ReadSharedReq_avg_mshr_miss_latency::total 78834.782609                       # average ReadSharedReq mshr miss latency
system.l2.power_state.pwrStateResidencyTicks::UNDEFINED  57381105500                       # Cumulative time (in ticks) in various power states
system.l2.tags.tagsinuse                 27367.224724                       # Cycle average of tags in use
system.l2.tags.total_refs                      153823                       # Total number of references to valid blocks.
system.l2.tags.sampled_refs                     39560                       # Sample count of references to valid blocks.
system.l2.tags.avg_refs                      3.888347                       # Average number of references to valid blocks.
system.l2.tags.warmup_cycle                     77000                       # Cycle when the warmup percentage was hit.
system.l2.tags.occ_blocks::.cpu.inst       518.776359                       # Average occupied blocks per requestor
system.l2.tags.occ_blocks::.cpu.data     26848.448365                       # Average occupied blocks per requestor
system.l2.tags.occ_percent::.cpu.inst        0.007916                       # Average percentage of cache occupancy
system.l2.tags.occ_percent::.cpu.data        0.409675                       # Average percentage of cache occupancy
system.l2.tags.occ_percent::total            0.417591                       # Average percentage of cache occupancy
system.l2.tags.occ_task_id_blocks::1024         39560                       # Occupied blocks per task id
system.l2.tags.age_task_id_blocks_1024::0            3                       # Occupied blocks per task id
system.l2.tags.age_task_id_blocks_1024::1           35                       # Occupied blocks per task id
system.l2.tags.age_task_id_blocks_1024::2          345                       # Occupied blocks per task id
system.l2.tags.age_task_id_blocks_1024::3         3475                       # Occupied blocks per task id
system.l2.tags.age_task_id_blocks_1024::4        35702                       # Occupied blocks per task id
system.l2.tags.occ_task_id_percent::1024     0.603638                       # Percentage of cache occupancy per task id
system.l2.tags.tag_accesses                    193389                       # Number of tag accesses
system.l2.tags.data_accesses                   193389                       # Number of data accesses
system.l2.tags.power_state.pwrStateResidencyTicks::UNDEFINED  57381105500                       # Cumulative time (in ticks) in various power states
system.mem_ctrls.avgPriority_.cpu.inst::samples       520.00                       # Average QoS priority value for accepted requests
system.mem_ctrls.avgPriority_.cpu.data::samples     39040.00                       # Average QoS priority value for accepted requests
system.mem_ctrls.priorityMinLatency      0.000000018750                       # per QoS priority minimum request to response latency (s)
system.mem_ctrls.priorityMaxLatency      0.000000579500                       # per QoS priority maximum request to response latency (s)
system.mem_ctrls.numReadWriteTurnArounds            0                       # Number of turnarounds from READ to WRITE
system.mem_ctrls.numWriteReadTurnArounds            0                       # Number of turnarounds from WRITE to READ
system.mem_ctrls.numStayReadState               93848                       # Number of times bus staying in READ state
system.mem_ctrls.numStayWriteState                  0                       # Number of times bus staying in WRITE state
system.mem_ctrls.readReqs                       39560                       # Number of read requests accepted
system.mem_ctrls.writeReqs                          0                       # Number of write requests accepted
system.mem_ctrls.readBursts                     39560                       # Number of controller read bursts, including those serviced by the write queue
system.mem_ctrls.writeBursts                        0                       # Number of controller write bursts, including those merged in the write queue
system.mem_ctrls.servicedByWrQ                      0                       # Number of controller read bursts serviced by the write queue
system.mem_ctrls.mergedWrBursts                     0                       # Number of controller write bursts merged with an existing one
system.mem_ctrls.neitherReadNorWriteReqs            0                       # Number of requests that are neither read nor write
system.mem_ctrls.avgRdQLen                       1.00                       # Average read queue length when enqueuing
system.mem_ctrls.avgWrQLen                       0.00                       # Average write queue length when enqueuing
system.mem_ctrls.numRdRetry                         0                       # Number of times read queue was full causing retry
system.mem_ctrls.numWrRetry                         0                       # Number of times write queue was full causing retry
system.mem_ctrls.readPktSize::0                     0                       # Read request sizes (log2)
system.mem_ctrls.readPktSize::1                     0                       # Read request sizes (log2)
system.mem_ctrls.readPktSize::2                     0                       # Read request sizes (log2)
system.mem_ctrls.readPktSize::3                     0                       # Read request sizes (log2)
system.mem_ctrls.readPktSize::4                     0                       # Read request sizes (log2)
system.mem_ctrls.readPktSize::5                     0                       # Read request sizes (log2)
system.mem_ctrls.readPktSize::6                 39560                       # Read request sizes (log2)
system.mem_ctrls.writePktSize::0                    0                       # Write request sizes (log2)
system.mem_ctrls.writePktSize::1                    0                       # Write request sizes (log2)
system.mem_ctrls.writePktSize::2                    0                       # Write request sizes (log2)
system.mem_ctrls.writePktSize::3                    0                       # Write request sizes (log2)
system.mem_ctrls.writePktSize::4                    0                       # Write request sizes (log2)
system.mem_ctrls.writePktSize::5                    0                       # Write request sizes (log2)
system.mem_ctrls.writePktSize::6                    0                       # Write request sizes (log2)
system.mem_ctrls.rdQLenPdf::0                   39464                       # What read queue length does an incoming req see
system.mem_ctrls.rdQLenPdf::1                      90                       # What read queue length does an incoming req see
system.mem_ctrls.rdQLenPdf::2                       6                       # What read queue length does an incoming req see
system.mem_ctrls.rdQLenPdf::3                       0                       # What read queue length does an incoming req see
system.mem_ctrls.rdQLenPdf::4                       0                       # What read queue length does an incoming req see
system.mem_ctrls.rdQLenPdf::5                       0                       # What read queue length does an incoming req see
system.mem_ctrls.rdQLenPdf::6                       0                       # What read queue length does an incoming req see
system.mem_ctrls.rdQLenPdf::7                       0                       # What read queue length does an incoming req see
system.mem_ctrls.rdQLenPdf::8                       0                       # What read queue length does an incoming req see
system.mem_ctrls.rdQLenPdf::9                       0                       # What read queue length does an incoming req see
system.mem_ctrls.rdQLenPdf::10                      0                       # What read queue length does an incoming req see
[...]
system.mem_ctrls.dram.bw_read::.cpu.data     43543253                       # Total read bandwidth from this memory (bytes/s)
system.mem_ctrls.dram.bw_read::total         44123235                       # Total read bandwidth from this memory (bytes/s)
system.mem_ctrls.dram.bw_inst_read::.cpu.inst       579982                       # Instruction read bandwidth from this memory (bytes/s)
system.mem_ctrls.dram.bw_inst_read::total       579982                       # Instruction read bandwidth from this memory (bytes/s)
system.mem_ctrls.dram.bw_total::.cpu.inst       579982                       # Total bandwidth to/from this memory (bytes/s)
system.mem_ctrls.dram.bw_total::.cpu.data     43543253                       # Total bandwidth to/from this memory (bytes/s)
system.mem_ctrls.dram.bw_total::total        44123235                       # Total bandwidth to/from this memory (bytes/s)
system.mem_ctrls.dram.readBursts                39560                       # Number of DRAM read bursts
system.mem_ctrls.dram.writeBursts                   0                       # Number of DRAM write bursts
system.mem_ctrls.dram.perBankRdBursts::0         2498                       # Per bank write bursts
system.mem_ctrls.dram.perBankRdBursts::1         2489                       # Per bank write bursts
system.mem_ctrls.dram.perBankRdBursts::2         2465                       # Per bank write bursts
system.mem_ctrls.dram.perBankRdBursts::3         2579                       # Per bank write bursts
system.mem_ctrls.dram.perBankRdBursts::4         2429                       # Per bank write bursts
system.mem_ctrls.dram.perBankRdBursts::5         2371                       # Per bank write bursts
system.mem_ctrls.dram.perBankRdBursts::6         2432                       # Per bank write bursts
system.mem_ctrls.dram.perBankRdBursts::7         2440                       # Per bank write bursts
system.mem_ctrls.dram.perBankRdBursts::8         2460                       # Per bank write bursts
system.mem_ctrls.dram.perBankRdBursts::9         2485                       # Per bank write bursts
system.mem_ctrls.dram.perBankRdBursts::10         2473                       # Per bank write bursts
system.mem_ctrls.dram.perBankRdBursts::11         2496                       # Per bank write bursts
system.mem_ctrls.dram.perBankRdBursts::12         2484                       # Per bank write bursts
system.mem_ctrls.dram.perBankRdBursts::13         2458                       # Per bank write bursts
system.mem_ctrls.dram.perBankRdBursts::14         2510                       # Per bank write bursts
system.mem_ctrls.dram.perBankRdBursts::15         2491                       # Per bank write bursts
system.mem_ctrls.dram.perBankWrBursts::0            0                       # Per bank write bursts
system.mem_ctrls.dram.perBankWrBursts::1            0                       # Per bank write bursts
system.mem_ctrls.dram.perBankWrBursts::2            0                       # Per bank write bursts
system.mem_ctrls.dram.perBankWrBursts::3            0                       # Per bank write bursts
system.mem_ctrls.dram.perBankWrBursts::4            0                       # Per bank write bursts
system.mem_ctrls.dram.perBankWrBursts::5            0                       # Per bank write bursts
system.mem_ctrls.dram.perBankWrBursts::6            0                       # Per bank write bursts
system.mem_ctrls.dram.perBankWrBursts::7            0                       # Per bank write bursts
system.mem_ctrls.dram.perBankWrBursts::8            0                       # Per bank write bursts
system.mem_ctrls.dram.perBankWrBursts::9            0                       # Per bank write bursts
system.mem_ctrls.dram.perBankWrBursts::10            0                       # Per bank write bursts
system.mem_ctrls.dram.perBankWrBursts::11            0                       # Per bank write bursts
system.mem_ctrls.dram.perBankWrBursts::12            0                       # Per bank write bursts
system.mem_ctrls.dram.perBankWrBursts::13            0                       # Per bank write bursts
system.mem_ctrls.dram.perBankWrBursts::14            0                       # Per bank write bursts
system.mem_ctrls.dram.perBankWrBursts::15            0                       # Per bank write bursts
system.mem_ctrls.dram.totQLat               630863000                       # Total ticks spent queuing
system.mem_ctrls.dram.totBusLat             197800000                       # Total ticks spent in databus transfers
system.mem_ctrls.dram.totMemAccLat         1372613000                       # Total ticks spent from burst creation until serviced by the DRAM
system.mem_ctrls.dram.avgQLat                15946.99                       # Average queueing delay per DRAM burst
system.mem_ctrls.dram.avgBusLat               5000.00                       # Average bus latency per DRAM burst
system.mem_ctrls.dram.avgMemAccLat           34696.99                       # Average memory access latency per DRAM burst
system.mem_ctrls.dram.readRowHits               30545                       # Number of row buffer hits during reads
system.mem_ctrls.dram.writeRowHits                  0                       # Number of row buffer hits during writes
system.mem_ctrls.dram.readRowHitRate            77.21                       # Row buffer hit rate for reads
system.mem_ctrls.dram.writeRowHitRate             nan                       # Row buffer hit rate for writes
system.mem_ctrls.dram.bytesPerActivate::samples         9014                       # Bytes accessed per row activation
system.mem_ctrls.dram.bytesPerActivate::mean   280.871533                       # Bytes accessed per row activation
system.mem_ctrls.dram.bytesPerActivate::gmean   233.964299                       # Bytes accessed per row activation
system.mem_ctrls.dram.bytesPerActivate::stdev   211.954037                       # Bytes accessed per row activation
system.mem_ctrls.dram.bytesPerActivate::0-127          328      3.64%      3.64% # Bytes accessed per row activation
system.mem_ctrls.dram.bytesPerActivate::128-255         6421     71.23%     74.87% # Bytes accessed per row activation
system.mem_ctrls.dram.bytesPerActivate::256-383          655      7.27%     82.14% # Bytes accessed per row activation
system.mem_ctrls.dram.bytesPerActivate::384-511          391      4.34%     86.48% # Bytes accessed per row activation
system.mem_ctrls.dram.bytesPerActivate::512-639          293      3.25%     89.73% # Bytes accessed per row activation
system.mem_ctrls.dram.bytesPerActivate::640-767          284      3.15%     92.88% # Bytes accessed per row activation
system.mem_ctrls.dram.bytesPerActivate::768-895          109      1.21%     94.09% # Bytes accessed per row activation
system.mem_ctrls.dram.bytesPerActivate::896-1023          422      4.68%     98.77% # Bytes accessed per row activation
system.mem_ctrls.dram.bytesPerActivate::1024-1151          111      1.23%    100.00% # Bytes accessed per row activation
system.mem_ctrls.dram.bytesPerActivate::total         9014                       # Bytes accessed per row activation
system.mem_ctrls.dram.bytesRead               2531840                       # Total number of bytes read from DRAM
system.mem_ctrls.dram.bytesWritten                  0                       # Total number of bytes written to DRAM
system.mem_ctrls.dram.avgRdBW               44.123235                       # Average DRAM read bandwidth in MiBytes/s
system.mem_ctrls.dram.avgWrBW                       0                       # Average DRAM write bandwidth in MiBytes/s
system.mem_ctrls.dram.peakBW                 12800.00                       # Theoretical peak bandwidth in MiByte/s
system.mem_ctrls.dram.busUtil                    0.34                       # Data bus utilization in percentage
system.mem_ctrls.dram.busUtilRead                0.34                       # Data bus utilization in percentage for reads
system.mem_ctrls.dram.busUtilWrite               0.00                       # Data bus utilization in percentage for writes
system.mem_ctrls.dram.pageHitRate               77.21                       # Row buffer hit rate, read and write combined
system.mem_ctrls.dram.power_state.pwrStateResidencyTicks::UNDEFINED  57381105500                       # Cumulative time (in ticks) in various power states
system.mem_ctrls.dram.rank0.actEnergy        32893980                       # Energy for activate commands per rank (pJ)
system.mem_ctrls.dram.rank0.preEnergy        17479770                       # Energy for precharge commands per rank (pJ)
system.mem_ctrls.dram.rank0.readEnergy      140679420                       # Energy for read commands per rank (pJ)
system.mem_ctrls.dram.rank0.writeEnergy             0                       # Energy for write commands per rank (pJ)
system.mem_ctrls.dram.rank0.refreshEnergy 4529282160.000001                       # Energy for refresh commands per rank (pJ)
system.mem_ctrls.dram.rank0.actBackEnergy  13255436640                       # Energy for active background per rank (pJ)
system.mem_ctrls.dram.rank0.preBackEnergy  10871871840                       # Energy for precharge background per rank (pJ)
system.mem_ctrls.dram.rank0.actPowerDownEnergy            0                       # Energy for active power-down per rank (pJ)
system.mem_ctrls.dram.rank0.prePowerDownEnergy            0                       # Energy for precharge power-down per rank (pJ)
system.mem_ctrls.dram.rank0.selfRefreshEnergy            0                       # Energy for self refresh per rank (pJ)
system.mem_ctrls.dram.rank0.totalEnergy   28847643810                       # Total energy per rank (pJ)
system.mem_ctrls.dram.rank0.averagePower   502.737679                       # Core power per rank (mW)
system.mem_ctrls.dram.rank0.totalIdleTime            0                       # Total Idle time Per DRAM Rank
system.mem_ctrls.dram.rank0.pwrStateTime::IDLE  28156545750                       # Time in different power states
system.mem_ctrls.dram.rank0.pwrStateTime::REF   1915940000                       # Time in different power states
system.mem_ctrls.dram.rank0.pwrStateTime::SREF            0                       # Time in different power states
system.mem_ctrls.dram.rank0.pwrStateTime::PRE_PDN            0                       # Time in different power states
system.mem_ctrls.dram.rank0.pwrStateTime::ACT  27308619750                       # Time in different power states
system.mem_ctrls.dram.rank0.pwrStateTime::ACT_PDN            0                       # Time in different power states
system.mem_ctrls.dram.rank1.actEnergy        31473120                       # Energy for activate commands per rank (pJ)
system.mem_ctrls.dram.rank1.preEnergy        16728360                       # Energy for precharge commands per rank (pJ)
system.mem_ctrls.dram.rank1.readEnergy      141778980                       # Energy for read commands per rank (pJ)
system.mem_ctrls.dram.rank1.writeEnergy             0                       # Energy for write commands per rank (pJ)
system.mem_ctrls.dram.rank1.refreshEnergy 4529282160.000001                       # Energy for refresh commands per rank (pJ)
system.mem_ctrls.dram.rank1.actBackEnergy  12880738020                       # Energy for active background per rank (pJ)
system.mem_ctrls.dram.rank1.preBackEnergy  11187407520                       # Energy for precharge background per rank (pJ)
system.mem_ctrls.dram.rank1.actPowerDownEnergy            0                       # Energy for active power-down per rank (pJ)
system.mem_ctrls.dram.rank1.prePowerDownEnergy            0                       # Energy for precharge power-down per rank (pJ)
system.mem_ctrls.dram.rank1.selfRefreshEnergy            0                       # Energy for self refresh per rank (pJ)
system.mem_ctrls.dram.rank1.totalEnergy   28787408160                       # Total energy per rank (pJ)
system.mem_ctrls.dram.rank1.averagePower   501.687932                       # Core power per rank (mW)
system.mem_ctrls.dram.rank1.totalIdleTime            0                       # Total Idle time Per DRAM Rank
system.mem_ctrls.dram.rank1.pwrStateTime::IDLE  28980126250                       # Time in different power states
system.mem_ctrls.dram.rank1.pwrStateTime::REF   1915940000                       # Time in different power states
system.mem_ctrls.dram.rank1.pwrStateTime::SREF            0                       # Time in different power states
system.mem_ctrls.dram.rank1.pwrStateTime::PRE_PDN            0                       # Time in different power states
system.mem_ctrls.dram.rank1.pwrStateTime::ACT  26485039250                       # Time in different power states
system.mem_ctrls.dram.rank1.pwrStateTime::ACT_PDN            0                       # Time in different power states
system.mem_ctrls.power_state.pwrStateResidencyTicks::UNDEFINED  57381105500                       # Cumulative time (in ticks) in various power states
system.membus.trans_dist::ReadResp                750                       # Transaction distribution
system.membus.trans_dist::ReadExReq             38810                       # Transaction distribution
system.membus.trans_dist::ReadExResp            38810                       # Transaction distribution
system.membus.trans_dist::ReadSharedReq           750                       # Transaction distribution
system.membus.pkt_count_system.l2.mem_side_port::system.mem_ctrls.port        79120                       # Packet count per connected requestor and responder (bytes)
system.membus.pkt_count::total                  79120                       # Packet count per connected requestor and responder (bytes)
system.membus.pkt_size_system.l2.mem_side_port::system.mem_ctrls.port      2531840                       # Cumulative packet size per connected requestor and responder (bytes)
system.membus.pkt_size::total                 2531840                       # Cumulative packet size per connected requestor and responder (bytes)
system.membus.snoops                                0                       # Total snoops (count)
system.membus.snoopTraffic                          0                       # Total snoop traffic (bytes)
system.membus.snoop_fanout::samples             39560                       # Request fanout histogram
system.membus.snoop_fanout::mean                    0                       # Request fanout histogram
system.membus.snoop_fanout::stdev                   0                       # Request fanout histogram
system.membus.snoop_fanout::underflows              0      0.00%      0.00% # Request fanout histogram
system.membus.snoop_fanout::0                   39560    100.00%    100.00% # Request fanout histogram
system.membus.snoop_fanout::1                       0      0.00%    100.00% # Request fanout histogram
system.membus.snoop_fanout::overflows               0      0.00%    100.00% # Request fanout histogram
system.membus.snoop_fanout::min_value               0                       # Request fanout histogram
system.membus.snoop_fanout::max_value               0                       # Request fanout histogram
system.membus.snoop_fanout::total               39560                       # Request fanout histogram
system.membus.power_state.pwrStateResidencyTicks::UNDEFINED  57381105500                       # Cumulative time (in ticks) in various power states
system.membus.reqLayer0.occupancy            48671000                       # Layer occupancy (ticks)
system.membus.reqLayer0.utilization               0.1                       # Layer utilization (%)
system.membus.respLayer1.occupancy          209435750                       # Layer occupancy (ticks)
system.membus.respLayer1.utilization              0.4                       # Layer utilization (%)
system.tol2bus.trans_dist::ReadResp             37930                       # Transaction distribution
system.tol2bus.trans_dist::WritebackDirty        65596                       # Transaction distribution
system.tol2bus.trans_dist::WritebackClean          314                       # Transaction distribution
system.tol2bus.trans_dist::CleanEvict           10917                       # Transaction distribution
system.tol2bus.trans_dist::ReadExReq            39481                       # Transaction distribution
system.tol2bus.trans_dist::ReadExResp           39481                       # Transaction distribution
system.tol2bus.trans_dist::ReadCleanReq           770                       # Transaction distribution
system.tol2bus.trans_dist::ReadSharedReq        37160                       # Transaction distribution
system.tol2bus.pkt_count_system.cpu.icache.mem_side_port::system.l2.cpu_side_port         1854                       # Packet count per connected requestor and responder (bytes)
system.tol2bus.pkt_count_system.cpu.dcache.mem_side_port::system.l2.cpu_side_port       229795                       # Packet count per connected requestor and responder (bytes)
system.tol2bus.pkt_count::total                231649                       # Packet count per connected requestor and responder (bytes)
system.tol2bus.pkt_size_system.cpu.icache.mem_side_port::system.l2.cpu_side_port        69376                       # Cumulative packet size per connected requestor and responder (bytes)
system.tol2bus.pkt_size_system.cpu.dcache.mem_side_port::system.l2.cpu_side_port      9103168                       # Cumulative packet size per connected requestor and responder (bytes)
system.tol2bus.pkt_size::total                9172544                       # Cumulative packet size per connected requestor and responder (bytes)
system.tol2bus.snoops                               0                       # Total snoops (count)
system.tol2bus.snoopTraffic                         0                       # Total snoop traffic (bytes)
system.tol2bus.snoop_fanout::samples            77411                       # Request fanout histogram
system.tol2bus.snoop_fanout::mean            0.005335                       # Request fanout histogram
system.tol2bus.snoop_fanout::stdev           0.072848                       # Request fanout histogram
system.tol2bus.snoop_fanout::underflows             0      0.00%      0.00% # Request fanout histogram
system.tol2bus.snoop_fanout::0                  76998     99.47%     99.47% # Request fanout histogram
system.tol2bus.snoop_fanout::1                    413      0.53%    100.00% # Request fanout histogram
system.tol2bus.snoop_fanout::2                      0      0.00%    100.00% # Request fanout histogram
system.tol2bus.snoop_fanout::overflows              0      0.00%    100.00% # Request fanout histogram
system.tol2bus.snoop_fanout::min_value              0                       # Request fanout histogram
system.tol2bus.snoop_fanout::max_value              1                       # Request fanout histogram
system.tol2bus.snoop_fanout::total              77411                       # Request fanout histogram
system.tol2bus.power_state.pwrStateResidencyTicks::UNDEFINED  57381105500                       # Cumulative time (in ticks) in various power states
system.tol2bus.reqLayer0.occupancy          143029000                       # Layer occupancy (ticks)
system.tol2bus.reqLayer0.utilization              0.2                       # Layer utilization (%)
system.tol2bus.respLayer0.occupancy           1155499                       # Layer occupancy (ticks)
system.tol2bus.respLayer0.utilization             0.0                       # Layer utilization (%)
system.tol2bus.respLayer1.occupancy         114963995                       # Layer occupancy (ticks)
system.tol2bus.respLayer1.utilization             0.2                       # Layer utilization (%)
system.voltage_domain.voltage                       1                       # Voltage in Volts

---------- End Simulation Statistics   ----------
