
---------- Begin Simulation Statistics ----------
final_tick                               266883087000                       # Number of ticks from beginning of simulation (restored from checkpoints and never reset)
host_inst_rate                                 124344                       # Simulator instruction rate (inst/s)
host_mem_usage                                 656888                       # Number of bytes of host memory used
host_op_rate                                   124348                       # Simulator op (including micro ops) rate (op/s)
host_seconds                                   804.22                       # Real time elapsed on the host
host_tick_rate                              331852877                       # Simulator tick rate (ticks/s)
sim_freq                                 1000000000000                       # Frequency of simulated ticks
sim_insts                                   100000000                       # Number of instructions simulated
sim_ops                                     100003676                       # Number of ops (including micro ops) simulated
sim_seconds                                  0.266883                       # Number of seconds simulated
sim_ticks                                266883087000                       # Number of ticks simulated
system.cpu.committedInsts                   100000000                       # Number of instructions committed
system.cpu.committedOps                     100003676                       # Number of ops (including micro ops) committed
system.cpu.cpi                               2.668831                       # CPI: cycles per instruction
system.cpu.discardedOps                         21251                       # Number of ops (including micro ops) which were discarded before commit
system.cpu.idleCycles                       149393535                       # Total number of cycles that the object has spent stopped
system.cpu.ipc                               0.374696                       # IPC: instructions per cycle
system.cpu.numCycles                        266883087                       # number of cpu cycles simulated
system.cpu.numFetchSuspends                         0                       # Number of times Execute suspended instruction fetching
system.cpu.numWorkItemsCompleted                    0                       # number of work items this cpu completed
system.cpu.numWorkItemsStarted                      0                       # number of work items this cpu started
system.cpu.op_class_0::No_OpClass                   0      0.00%      0.00% # Class of committed instruction
system.cpu.op_class_0::IntAlu                49995472     49.99%     49.99% # Class of committed instruction
system.cpu.op_class_0::IntMult                     88      0.00%     49.99% # Class of committed instruction
system.cpu.op_class_0::IntDiv                       0      0.00%     49.99% # Class of committed instruction
system.cpu.op_class_0::FloatAdd                     0      0.00%     49.99% # Class of committed instruction
system.cpu.op_class_0::FloatCmp                     0      0.00%     49.99% # Class of committed instruction
system.cpu.op_class_0::FloatCvt                     0      0.00%     49.99% # Class of committed instruction
system.cpu.op_class_0::FloatMult                    0      0.00%     49.99% # Class of committed instruction
system.cpu.op_class_0::FloatMultAcc                 0      0.00%     49.99% # Class of committed instruction
system.cpu.op_class_0::FloatDiv                     0      0.00%     49.99% # Class of committed instruction
system.cpu.op_class_0::FloatMisc                    0      0.00%     49.99% # Class of committed instruction
system.cpu.op_class_0::FloatSqrt                    0      0.00%     49.99% # Class of committed instruction
system.cpu.op_class_0::SimdAdd                      0      0.00%     49.99% # Class of committed instruction
system.cpu.op_class_0::SimdAddAcc                   0      0.00%     49.99% # Class of committed instruction
system.cpu.op_class_0::SimdAlu                      0      0.00%     49.99% # Class of committed instruction
system.cpu.op_class_0::SimdCmp                      0      0.00%     49.99% # Class of committed instruction
system.cpu.op_class_0::SimdCvt                      0      0.00%     49.99% # Class of committed instruction
system.cpu.op_class_0::SimdMisc                     0      0.00%     49.99% # Class of committed instruction
system.cpu.op_class_0::SimdMult                     0      0.00%     49.99% # Class of committed instruction
system.cpu.op_class_0::SimdMultAcc                  0      0.00%     49.99% # Class of committed instruction
system.cpu.op_class_0::SimdShift                    0      0.00%     49.99% # Class of committed instruction
system.cpu.op_class_0::SimdShiftAcc                 0      0.00%     49.99% # Class of committed instruction
system.cpu.op_class_0::SimdDiv                      0      0.00%     49.99% # Class of committed instruction
system.cpu.op_class_0::SimdSqrt                     0      0.00%     49.99% # Class of committed instruction
system.cpu.op_class_0::SimdFloatAdd                 0      0.00%     49.99% # Class of committed instruction
system.cpu.op_class_0::SimdFloatAlu                 0      0.00%     49.99% # Class of committed instruction
system.cpu.op_class_0::SimdFloatCmp                 2      0.00%     49.99% # Class of committed instruction
system.cpu.op_class_0::SimdFloatCvt                 0      0.00%     49.99% # Class of committed instruction
system.cpu.op_class_0::SimdFloatDiv                 0      0.00%     49.99% # Class of committed instruction
system.cpu.op_class_0::SimdFloatMisc               22      0.00%     49.99% # Class of committed instruction
system.cpu.op_class_0::SimdFloatMult                0      0.00%     49.99% # Class of committed instruction
system.cpu.op_class_0::SimdFloatMultAcc             0      0.00%     49.99% # Class of committed instruction
system.cpu.op_class_0::SimdFloatSqrt                0      0.00%     49.99% # Class of committed instruction
system.cpu.op_class_0::SimdReduceAdd                0      0.00%     49.99% # Class of committed instruction
system.cpu.op_class_0::SimdReduceAlu                0      0.00%     49.99% # Class of committed instruction
system.cpu.op_class_0::SimdReduceCmp                0      0.00%     49.99% # Class of committed instruction
system.cpu.op_class_0::SimdFloatReduceAdd            0      0.00%     49.99% # Class of committed instruction
system.cpu.op_class_0::SimdFloatReduceCmp            0      0.00%     49.99% # Class of committed instruction
system.cpu.op_class_0::SimdAes                      0      0.00%     49.99% # Class of committed instruction
system.cpu.op_class_0::SimdAesMix                   0      0.00%     49.99% # Class of committed instruction
system.cpu.op_class_0::SimdSha1Hash                 0      0.00%     49.99% # Class of committed instruction
system.cpu.op_class_0::SimdSha1Hash2                0      0.00%     49.99% # Class of committed instruction
system.cpu.op_class_0::SimdSha256Hash               0      0.00%     49.99% # Class of committed instruction
system.cpu.op_class_0::SimdSha256Hash2              0      0.00%     49.99% # Class of committed instruction
system.cpu.op_class_0::SimdShaSigma2                0      0.00%     49.99% # Class of committed instruction
system.cpu.op_class_0::SimdShaSigma3                0      0.00%     49.99% # Class of committed instruction
system.cpu.op_class_0::SimdPredAlu                  0      0.00%     49.99% # Class of committed instruction
system.cpu.op_class_0::MemRead               36892238     36.89%     86.88% # Class of committed instruction
system.cpu.op_class_0::MemWrite              13115854     13.12%    100.00% # Class of committed instruction
system.cpu.op_class_0::FloatMemRead                 0      0.00%    100.00% # Class of committed instruction
system.cpu.op_class_0::FloatMemWrite                0      0.00%    100.00% # Class of committed instruction
system.cpu.op_class_0::IprAccess                    0      0.00%    100.00% # Class of committed instruction
system.cpu.op_class_0::InstPrefetch                 0      0.00%    100.00% # Class of committed instruction
system.cpu.op_class_0::total                100003676                       # Class of committed instruction
system.cpu.tickCycles                       117489552                       # Number of cycles that the object actually ticked
system.cpu.workload.numSyscalls                    19                       # Number of system calls
system.membus.snoop_filter.hit_multi_requests            0                       # Number of requests hitting in the snoop filter with multiple (>1) holders of the requested data.
system.membus.snoop_filter.hit_multi_snoops            0                       # Number of snoops hitting in the snoop filter with multiple (>1) holders of the requested data.
system.membus.snoop_filter.hit_single_requests      1471514                       # Number of requests hitting in the snoop filter with a single holder of the requested data.
system.membus.snoop_filter.hit_single_snoops            0                       # Number of snoops hitting in the snoop filter with a single holder of the requested data.
system.membus.snoop_filter.tot_requests       2959626                       # Total number of requests made to the snoop filter.
system.membus.snoop_filter.tot_snoops               0                       # Total number of snoops made to the snoop filter.
system.tol2bus.snoop_filter.hit_multi_requests        23290                       # Number of requests hitting in the snoop filter with multiple (>1) holders of the requested data.
system.tol2bus.snoop_filter.hit_multi_snoops            0                       # Number of snoops hitting in the snoop filter with multiple (>1) holders of the requested data.
system.tol2bus.snoop_filter.hit_single_requests      1569492                       # Number of requests hitting in the snoop filter with a single holder of the requested data.
system.tol2bus.snoop_filter.hit_single_snoops          214                       # Number of snoops hitting in the snoop filter with a single holder of the requested data.
system.tol2bus.snoop_filter.tot_requests      3139453                       # Total number of requests made to the snoop filter.
system.tol2bus.snoop_filter.tot_snoops            214                       # Total number of snoops made to the snoop filter.
system.clk_domain.clock                          1000                       # Clock period in ticks
system.cpu.branchPred.lookups                  606625                       # Number of BP lookups
system.cpu.branchPred.condPredicted            604560                       # Number of conditional branches predicted
system.cpu.branchPred.condIncorrect               831                       # Number of conditional branches incorrect
system.cpu.branchPred.BTBLookups               602540                       # Number of BTB lookups
system.cpu.branchPred.BTBHits                  601453                       # Number of BTB hits
system.cpu.branchPred.BTBHitPct             99.819597                       # BTB Hit Percentage
system.cpu.branchPred.RASUsed                     559                       # Number of times the RAS was used to get a target.
system.cpu.branchPred.RASIncorrect                  1                       # Number of incorrect RAS predictions.
system.cpu.branchPred.indirectLookups             368                       # Number of indirect predictor lookups.
system.cpu.branchPred.indirectHits                170                       # Number of indirect target hits.
system.cpu.branchPred.indirectMisses              198                       # Number of indirect misses.
system.cpu.branchPred.indirectMispredicted          105                       # Number of mispredicted indirect branches.
system.cpu.dcache.demand_hits::.cpu.data     45704930                       # number of demand (read+write) hits
system.cpu.dcache.demand_hits::total         45704930                       # number of demand (read+write) hits
system.cpu.dcache.overall_hits::.cpu.data     45704964                       # number of overall hits
system.cpu.dcache.overall_hits::total        45704964                       # number of overall hits
system.cpu.dcache.demand_misses::.cpu.data      3090212                       # number of demand (read+write) misses
system.cpu.dcache.demand_misses::total        3090212                       # number of demand (read+write) misses
system.cpu.dcache.overall_misses::.cpu.data      3090231                       # number of overall misses
system.cpu.dcache.overall_misses::total       3090231                       # number of overall misses
system.cpu.dcache.demand_miss_latency::.cpu.data 307767207000                       # number of demand (read+write) miss cycles
system.cpu.dcache.demand_miss_latency::total 307767207000                       # number of demand (read+write) miss cycles
system.cpu.dcache.overall_miss_latency::.cpu.data 307767207000                       # number of overall miss cycles
system.cpu.dcache.overall_miss_latency::total 307767207000                       # number of overall miss cycles
system.cpu.dcache.demand_accesses::.cpu.data     48795142                       # number of demand (read+write) accesses
system.cpu.dcache.demand_accesses::total     48795142                       # number of demand (read+write) accesses
system.cpu.dcache.overall_accesses::.cpu.data     48795195                       # number of overall (read+write) accesses
system.cpu.dcache.overall_accesses::total     48795195                       # number of overall (read+write) accesses
system.cpu.dcache.demand_miss_rate::.cpu.data     0.063330                       # miss rate for demand accesses
system.cpu.dcache.demand_miss_rate::total     0.063330                       # miss rate for demand accesses
system.cpu.dcache.overall_miss_rate::.cpu.data     0.063331                       # miss rate for overall accesses
system.cpu.dcache.overall_miss_rate::total     0.063331                       # miss rate for overall accesses
system.cpu.dcache.demand_avg_miss_latency::.cpu.data 99594.204864                       # average overall miss latency
system.cpu.dcache.demand_avg_miss_latency::total 99594.204864                       # average overall miss latency
system.cpu.dcache.overall_avg_miss_latency::.cpu.data 99593.592518                       # average overall miss latency
system.cpu.dcache.overall_avg_miss_latency::total 99593.592518                       # average overall miss latency
system.cpu.dcache.blocked_cycles::no_mshrs            3                       # number of cycles access was blocked
system.cpu.dcache.blocked_cycles::no_targets            0                       # number of cycles access was blocked
system.cpu.dcache.blocked::no_mshrs                 1                       # number of cycles access was blocked
system.cpu.dcache.blocked::no_targets               0                       # number of cycles access was blocked
system.cpu.dcache.avg_blocked_cycles::no_mshrs            3                       # average number of cycles each access was blocked
system.cpu.dcache.avg_blocked_cycles::no_targets          nan                       # average number of cycles each access was blocked
system.cpu.dcache.writebacks::.writebacks      1545407                       # number of writebacks
system.cpu.dcache.writebacks::total           1545407                       # number of writebacks
system.cpu.dcache.demand_mshr_hits::.cpu.data      1521189                       # number of demand (read+write) MSHR hits
system.cpu.dcache.demand_mshr_hits::total      1521189                       # number of demand (read+write) MSHR hits
system.cpu.dcache.overall_mshr_hits::.cpu.data      1521189                       # number of overall MSHR hits
system.cpu.dcache.overall_mshr_hits::total      1521189                       # number of overall MSHR hits
system.cpu.dcache.demand_mshr_misses::.cpu.data      1569023                       # number of demand (read+write) MSHR misses
system.cpu.dcache.demand_mshr_misses::total      1569023                       # number of demand (read+write) MSHR misses
system.cpu.dcache.overall_mshr_misses::.cpu.data      1569039                       # number of overall MSHR misses
system.cpu.dcache.overall_mshr_misses::total      1569039                       # number of overall MSHR misses
system.cpu.dcache.demand_mshr_miss_latency::.cpu.data 159951855000                       # number of demand (read+write) MSHR miss cycles
system.cpu.dcache.demand_mshr_miss_latency::total 159951855000                       # number of demand (read+write) MSHR miss cycles
system.cpu.dcache.overall_mshr_miss_latency::.cpu.data 159953308000                       # number of overall MSHR miss cycles
system.cpu.dcache.overall_mshr_miss_latency::total 159953308000                       # number of overall MSHR miss cycles
system.cpu.dcache.demand_mshr_miss_rate::.cpu.data     0.032155                       # mshr miss rate for demand accesses
system.cpu.dcache.demand_mshr_miss_rate::total     0.032155                       # mshr miss rate for demand accesses
system.cpu.dcache.overall_mshr_miss_rate::.cpu.data     0.032156                       # mshr miss rate for overall accesses
system.cpu.dcache.overall_mshr_miss_rate::total     0.032156                       # mshr miss rate for overall accesses
system.cpu.dcache.demand_avg_mshr_miss_latency::.cpu.data 101943.601209                       # average overall mshr miss latency
system.cpu.dcache.demand_avg_mshr_miss_latency::total 101943.601209                       # average overall mshr miss latency
system.cpu.dcache.overall_avg_mshr_miss_latency::.cpu.data 101943.487702                       # average overall mshr miss latency
system.cpu.dcache.overall_avg_mshr_miss_latency::total 101943.487702                       # average overall mshr miss latency
system.cpu.dcache.replacements                1568783                       # number of replacements
system.cpu.dcache.ReadReq_hits::.cpu.data     35655965                       # number of ReadReq hits
system.cpu.dcache.ReadReq_hits::total        35655965                       # number of ReadReq hits
system.cpu.dcache.ReadReq_misses::.cpu.data        46668                       # number of ReadReq misses
system.cpu.dcache.ReadReq_misses::total         46668                       # number of ReadReq misses
system.cpu.dcache.ReadReq_miss_latency::.cpu.data   2128465000                       # number of ReadReq miss cycles
system.cpu.dcache.ReadReq_miss_latency::total   2128465000                       # number of ReadReq miss cycles
system.cpu.dcache.ReadReq_accesses::.cpu.data     35702633                       # number of ReadReq accesses(hits+misses)
system.cpu.dcache.ReadReq_accesses::total     35702633                       # number of ReadReq accesses(hits+misses)
system.cpu.dcache.ReadReq_miss_rate::.cpu.data     0.001307                       # miss rate for ReadReq accesses
system.cpu.dcache.ReadReq_miss_rate::total     0.001307                       # miss rate for ReadReq accesses
system.cpu.dcache.ReadReq_avg_miss_latency::.cpu.data 45608.661181                       # average ReadReq miss latency
system.cpu.dcache.ReadReq_avg_miss_latency::total 45608.661181                       # average ReadReq miss latency
system.cpu.dcache.ReadReq_mshr_hits::.cpu.data            9                       # number of ReadReq MSHR hits
system.cpu.dcache.ReadReq_mshr_hits::total            9                       # number of ReadReq MSHR hits
system.cpu.dcache.ReadReq_mshr_misses::.cpu.data        46659                       # number of ReadReq MSHR misses
system.cpu.dcache.ReadReq_mshr_misses::total        46659                       # number of ReadReq MSHR misses
system.cpu.dcache.ReadReq_mshr_miss_latency::.cpu.data   2034534000                       # number of ReadReq MSHR miss cycles
system.cpu.dcache.ReadReq_mshr_miss_latency::total   2034534000                       # number of ReadReq MSHR miss cycles
system.cpu.dcache.ReadReq_mshr_miss_rate::.cpu.data     0.001307                       # mshr miss rate for ReadReq accesses
system.cpu.dcache.ReadReq_mshr_miss_rate::total     0.001307                       # mshr miss rate for ReadReq accesses
system.cpu.dcache.ReadReq_avg_mshr_miss_latency::.cpu.data 43604.320710                       # average ReadReq mshr miss latency
system.cpu.dcache.ReadReq_avg_mshr_miss_latency::total 43604.320710                       # average ReadReq mshr miss latency
system.cpu.dcache.WriteReq_hits::.cpu.data     10048965                       # number of WriteReq hits
system.cpu.dcache.WriteReq_hits::total       10048965                       # number of WriteReq hits
system.cpu.dcache.WriteReq_misses::.cpu.data      3043544                       # number of WriteReq misses
system.cpu.dcache.WriteReq_misses::total      3043544                       # number of WriteReq misses
system.cpu.dcache.WriteReq_miss_latency::.cpu.data 305638742000                       # number of WriteReq miss cycles
system.cpu.dcache.WriteReq_miss_latency::total 305638742000                       # number of WriteReq miss cycles
system.cpu.dcache.WriteReq_accesses::.cpu.data     13092509                       # number of WriteReq accesses(hits+misses)
system.cpu.dcache.WriteReq_accesses::total     13092509                       # number of WriteReq accesses(hits+misses)
system.cpu.dcache.WriteReq_miss_rate::.cpu.data     0.232465                       # miss rate for WriteReq accesses
system.cpu.dcache.WriteReq_miss_rate::total     0.232465                       # miss rate for WriteReq accesses
system.cpu.dcache.WriteReq_avg_miss_latency::.cpu.data 100421.988971                       # average WriteReq miss latency
system.cpu.dcache.WriteReq_avg_miss_latency::total 100421.988971                       # average WriteReq miss latency
system.cpu.dcache.WriteReq_mshr_hits::.cpu.data      1521180                       # number of WriteReq MSHR hits
system.cpu.dcache.WriteReq_mshr_hits::total      1521180                       # number of WriteReq MSHR hits
system.cpu.dcache.WriteReq_mshr_misses::.cpu.data      1522364                       # number of WriteReq MSHR misses
system.cpu.dcache.WriteReq_mshr_misses::total      1522364                       # number of WriteReq MSHR misses
system.cpu.dcache.WriteReq_mshr_miss_latency::.cpu.data 157917321000                       # number of WriteReq MSHR miss cycles
system.cpu.dcache.WriteReq_mshr_miss_latency::total 157917321000                       # number of WriteReq MSHR miss cycles
system.cpu.dcache.WriteReq_mshr_miss_rate::.cpu.data     0.116277                       # mshr miss rate for WriteReq accesses
system.cpu.dcache.WriteReq_mshr_miss_rate::total     0.116277                       # mshr miss rate for WriteReq accesses
system.cpu.dcache.WriteReq_avg_mshr_miss_latency::.cpu.data 103731.644337                       # average WriteReq mshr miss latency
system.cpu.dcache.WriteReq_avg_mshr_miss_latency::total 103731.644337                       # average WriteReq mshr miss latency
system.cpu.dcache.SoftPFReq_hits::.cpu.data           34                       # number of SoftPFReq hits
system.cpu.dcache.SoftPFReq_hits::total            34                       # number of SoftPFReq hits
system.cpu.dcache.SoftPFReq_misses::.cpu.data           19                       # number of SoftPFReq misses
system.cpu.dcache.SoftPFReq_misses::total           19                       # number of SoftPFReq misses
system.cpu.dcache.SoftPFReq_accesses::.cpu.data           53                       # number of SoftPFReq accesses(hits+misses)
system.cpu.dcache.SoftPFReq_accesses::total           53                       # number of SoftPFReq accesses(hits+misses)
system.cpu.dcache.SoftPFReq_miss_rate::.cpu.data     0.358491                       # miss rate for SoftPFReq accesses
system.cpu.dcache.SoftPFReq_miss_rate::total     0.358491                       # miss rate for SoftPFReq accesses
system.cpu.dcache.SoftPFReq_mshr_misses::.cpu.data           16                       # number of SoftPFReq MSHR misses
system.cpu.dcache.SoftPFReq_mshr_misses::total           16                       # number of SoftPFReq MSHR misses
system.cpu.dcache.SoftPFReq_mshr_miss_latency::.cpu.data      1453000                       # number of SoftPFReq MSHR miss cycles
system.cpu.dcache.SoftPFReq_mshr_miss_latency::total      1453000                       # number of SoftPFReq MSHR miss cycles
system.cpu.dcache.SoftPFReq_mshr_miss_rate::.cpu.data     0.301887                       # mshr miss rate for SoftPFReq accesses
system.cpu.dcache.SoftPFReq_mshr_miss_rate::total     0.301887                       # mshr miss rate for SoftPFReq accesses
system.cpu.dcache.SoftPFReq_avg_mshr_miss_latency::.cpu.data 90812.500000                       # average SoftPFReq mshr miss latency
system.cpu.dcache.SoftPFReq_avg_mshr_miss_latency::total 90812.500000                       # average SoftPFReq mshr miss latency
system.cpu.dcache.LoadLockedReq_hits::.cpu.data           14                       # number of LoadLockedReq hits
system.cpu.dcache.LoadLockedReq_hits::total           14                       # number of LoadLockedReq hits
system.cpu.dcache.LoadLockedReq_accesses::.cpu.data           14                       # number of LoadLockedReq accesses(hits+misses)
system.cpu.dcache.LoadLockedReq_accesses::total           14                       # number of LoadLockedReq accesses(hits+misses)
system.cpu.dcache.StoreCondReq_hits::.cpu.data           14                       # number of StoreCondReq hits
system.cpu.dcache.StoreCondReq_hits::total           14                       # number of StoreCondReq hits
system.cpu.dcache.StoreCondReq_accesses::.cpu.data           14                       # number of StoreCondReq accesses(hits+misses)
system.cpu.dcache.StoreCondReq_accesses::total           14                       # number of StoreCondReq accesses(hits+misses)
system.cpu.dcache.power_state.pwrStateResidencyTicks::UNDEFINED 266883087000                       # Cumulative time (in ticks) in various power states
system.cpu.dcache.tags.tagsinuse           255.934276                       # Cycle average of tags in use
system.cpu.dcache.tags.total_refs            47274031                       # Total number of references to valid blocks.
system.cpu.dcache.tags.sampled_refs           1569039                       # Sample count of references to valid blocks.
system.cpu.dcache.tags.avg_refs             30.129290                       # Average number of references to valid blocks.
system.cpu.dcache.tags.warmup_cycle            223000                       # Cycle when the warmup percentage was hit.
system.cpu.dcache.tags.occ_blocks::.cpu.data   255.934276                       # Average occupied blocks per requestor
system.cpu.dcache.tags.occ_percent::.cpu.data     0.999743                       # Average percentage of cache occupancy
system.cpu.dcache.tags.occ_percent::total     0.999743                       # Average percentage of cache occupancy
system.cpu.dcache.tags.occ_task_id_blocks::1024          256                       # Occupied blocks per task id
system.cpu.dcache.tags.age_task_id_blocks_1024::0           55                       # Occupied blocks per task id
system.cpu.dcache.tags.age_task_id_blocks_1024::1          201                       # Occupied blocks per task id
system.cpu.dcache.tags.occ_task_id_percent::1024            1                       # Percentage of cache occupancy per task id
system.cpu.dcache.tags.tag_accesses          50364262                       # Number of tag accesses
system.cpu.dcache.tags.data_accesses         50364262                       # Number of data accesses
system.cpu.dcache.tags.power_state.pwrStateResidencyTicks::UNDEFINED 266883087000                       # Cumulative time (in ticks) in various power states
system.cpu.dtb.instHits                             0                       # ITB inst hits
system.cpu.dtb.instMisses                           0                       # ITB inst misses
system.cpu.dtb.readHits                             0                       # DTB read hits
system.cpu.dtb.readMisses                           0                       # DTB read misses
system.cpu.dtb.writeHits                            0                       # DTB write hits
system.cpu.dtb.writeMisses                          0                       # DTB write misses
system.cpu.dtb.inserts                              0                       # Number of times an entry is inserted into the TLB
system.cpu.dtb.flushTlb                             0                       # Number of times complete TLB was flushed
system.cpu.dtb.flushTlbMva                          0                       # Number of times TLB was flushed by MVA
system.cpu.dtb.flushTlbMvaAsid                      0                       # Number of times TLB was flushed by MVA & ASID
system.cpu.dtb.flushTlbAsid                         0                       # Number of times TLB was flushed by ASID
system.cpu.dtb.flushedEntries                       0                       # Number of entries that have been flushed from TLB
system.cpu.dtb.alignFaults                          0                       # Number of TLB faults due to alignment restrictions
system.cpu.dtb.prefetchFaults                       0                       # Number of TLB faults due to prefetch
system.cpu.dtb.domainFaults                         0                       # Number of TLB faults due to domain restrictions
system.cpu.dtb.permsFaults                          0                       # Number of TLB faults due to permissions restrictions
system.cpu.dtb.readAccesses                         0                       # DTB read accesses
system.cpu.dtb.writeAccesses                        0                       # DTB write accesses
system.cpu.dtb.instAccesses                         0                       # ITB inst accesses
system.cpu.dtb.hits                                 0                       # Total TLB (inst and data) hits
system.cpu.dtb.misses                               0                       # Total TLB (inst and data) misses
system.cpu.dtb.accesses                             0                       # Total TLB (inst and data) accesses
system.cpu.dtb.stage2_mmu.stage2_tlb.instHits            0                       # ITB inst hits
system.cpu.dtb.stage2_mmu.stage2_tlb.instMisses            0                       # ITB inst misses
system.cpu.dtb.stage2_mmu.stage2_tlb.readHits            0                       # DTB read hits
system.cpu.dtb.stage2_mmu.stage2_tlb.readMisses            0                       # DTB read misses
system.cpu.dtb.stage2_mmu.stage2_tlb.writeHits            0                       # DTB write hits
system.cpu.dtb.stage2_mmu.stage2_tlb.writeMisses            0                       # DTB write misses
system.cpu.dtb.stage2_mmu.stage2_tlb.inserts            0                       # Number of times an entry is inserted into the TLB
system.cpu.dtb.stage2_mmu.stage2_tlb.flushTlb            0                       # Number of times complete TLB was flushed
system.cpu.dtb.stage2_mmu.stage2_tlb.flushTlbMva            0                       # Number of times TLB was flushed by MVA
system.cpu.dtb.stage2_mmu.stage2_tlb.flushTlbMvaAsid            0                       # Number of times TLB was flushed by MVA & ASID
system.cpu.dtb.stage2_mmu.stage2_tlb.flushTlbAsid            0                       # Number of times TLB was flushed by ASID
system.cpu.dtb.stage2_mmu.stage2_tlb.flushedEntries            0                       # Number of entries that have been flushed from TLB
system.cpu.dtb.stage2_mmu.stage2_tlb.alignFaults            0                       # Number of TLB faults due to alignment restrictions
system.cpu.dtb.stage2_mmu.stage2_tlb.prefetchFaults            0                       # Number of TLB faults due to prefetch
system.cpu.dtb.stage2_mmu.stage2_tlb.domainFaults            0                       # Number of TLB faults due to domain restrictions
system.cpu.dtb.stage2_mmu.stage2_tlb.permsFaults            0                       # Number of TLB faults due to permissions restrictions
system.cpu.dtb.stage2_mmu.stage2_tlb.readAccesses            0                       # DTB read accesses
system.cpu.dtb.stage2_mmu.stage2_tlb.writeAccesses            0                       # DTB write accesses
system.cpu.dtb.stage2_mmu.stage2_tlb.instAccesses            0                       # ITB inst accesses
system.cpu.dtb.stage2_mmu.stage2_tlb.hits            0                       # Total TLB (inst and data) hits
system.cpu.dtb.stage2_mmu.stage2_tlb.misses            0                       # Total TLB (inst and data) misses
system.cpu.dtb.stage2_mmu.stage2_tlb.accesses            0                       # Total TLB (inst and data) accesses
system.cpu.dtb.stage2_mmu.stage2_tlb.walker.walks            0                       # Table walker walks requested
system.cpu.dtb.stage2_mmu.stage2_tlb.walker.requestOrigin_Requested::Data            0                       # Table walker requests started/completed, data/inst
system.cpu.dtb.stage2_mmu.stage2_tlb.walker.requestOrigin_Requested::Inst            0                       # Table walker requests started/completed, data/inst
system.cpu.dtb.stage2_mmu.stage2_tlb.walker.requestOrigin_Requested::total            0                       # Table walker requests started/completed, data/inst
system.cpu.dtb.stage2_mmu.stage2_tlb.walker.requestOrigin_Completed::Data            0                       # Table walker requests started/completed, data/inst
system.cpu.dtb.stage2_mmu.stage2_tlb.walker.requestOrigin_Completed::Inst            0                       # Table walker requests started/completed, data/inst
system.cpu.dtb.stage2_mmu.stage2_tlb.walker.requestOrigin_Completed::total            0                       # Table walker requests started/completed, data/inst
system.cpu.dtb.stage2_mmu.stage2_tlb.walker.requestOrigin::total            0                       # Table walker requests started/completed, data/inst
system.cpu.dtb.stage2_mmu.stage2_tlb.walker.power_state.pwrStateResidencyTicks::UNDEFINED 266883087000                       # Cumulative time (in ticks) in various power states
system.cpu.dtb.walker.walks                         0                       # Table walker walks requested
system.cpu.dtb.walker.requestOrigin_Requested::Data            0                       # Table walker requests started/completed, data/inst
system.cpu.dtb.walker.requestOrigin_Requested::Inst            0                       # Table walker requests started/completed, data/inst
system.cpu.dtb.walker.requestOrigin_Requested::total            0                       # Table walker requests started/completed, data/inst
system.cpu.dtb.walker.requestOrigin_Completed::Data            0                       # Table walker requests started/completed, data/inst
system.cpu.dtb.walker.requestOrigin_Completed::Inst            0                       # Table walker requests started/completed, data/inst
system.cpu.dtb.walker.requestOrigin_Completed::total            0                       # Table walker requests started/completed, data/inst
system.cpu.dtb.walker.requestOrigin::total            0                       # Table walker requests started/completed, data/inst
system.cpu.dtb.walker.power_state.pwrStateResidencyTicks::UNDEFINED 266883087000                       # Cumulative time (in ticks) in various power states
system.cpu.fetch2.intInstructions            49669898                       # Number of integer instructions successfully decoded
system.cpu.fetch2.fpInstructions                    0                       # Number of floating point instructions successfully decoded
system.cpu.fetch2.vecInstructions                   0                       # Number of SIMD instructions successfully decoded
system.cpu.fetch2.loadInstructions           37092289                       # Number of memory load instructions successfully decoded
system.cpu.fetch2.storeInstructions          13161111                       # Number of memory store instructions successfully decoded
system.cpu.fetch2.amoInstructions                   0                       # Number of memory atomic instructions successfully decoded
system.cpu.icache.demand_hits::.cpu.inst      6045584                       # number of demand (read+write) hits
system.cpu.icache.demand_hits::total          6045584                       # number of demand (read+write) hits
system.cpu.icache.overall_hits::.cpu.inst      6045584                       # number of overall hits
system.cpu.icache.overall_hits::total         6045584                       # number of overall hits
system.cpu.icache.demand_misses::.cpu.inst          923                       # number of demand (read+write) misses
system.cpu.icache.demand_misses::total            923                       # number of demand (read+write) misses
system.cpu.icache.overall_misses::.cpu.inst          923                       # number of overall misses
system.cpu.icache.overall_misses::total           923                       # number of overall misses
system.cpu.icache.demand_miss_latency::.cpu.inst     62253000                       # number of demand (read+write) miss cycles
system.cpu.icache.demand_miss_latency::total     62253000                       # number of demand (read+write) miss cycles
system.cpu.icache.overall_miss_latency::.cpu.inst     62253000                       # number of overall miss cycles
system.cpu.icache.overall_miss_latency::total     62253000                       # number of overall miss cycles
system.cpu.icache.demand_accesses::.cpu.inst      6046507                       # number of demand (read+write) accesses
system.cpu.icache.demand_accesses::total      6046507                       # number of demand (read+write) accesses
system.cpu.icache.overall_accesses::.cpu.inst      6046507                       # number of overall (read+write) accesses
system.cpu.icache.overall_accesses::total      6046507                       # number of overall (read+write) accesses
system.cpu.icache.demand_miss_rate::.cpu.inst     0.000153                       # miss rate for demand accesses
system.cpu.icache.demand_miss_rate::total     0.000153                       # miss rate for demand accesses
system.cpu.icache.overall_miss_rate::.cpu.inst     0.000153                       # miss rate for overall accesses
system.cpu.icache.overall_miss_rate::total     0.000153                       # miss rate for overall accesses
system.cpu.icache.demand_avg_miss_latency::.cpu.inst 67446.370531                       # average overall miss latency
system.cpu.icache.demand_avg_miss_latency::total 67446.370531                       # average overall miss latency
system.cpu.icache.overall_avg_miss_latency::.cpu.inst 67446.370531                       # average overall miss latency
system.cpu.icache.overall_avg_miss_latency::total 67446.370531                       # average overall miss latency
system.cpu.icache.blocked_cycles::no_mshrs            0                       # number of cycles access was blocked
system.cpu.icache.blocked_cycles::no_targets            0                       # number of cycles access was blocked
system.cpu.icache.blocked::no_mshrs                 0                       # number of cycles access was blocked
system.cpu.icache.blocked::no_targets               0                       # number of cycles access was blocked
system.cpu.icache.avg_blocked_cycles::no_mshrs          nan                       # average number of cycles each access was blocked
system.cpu.icache.avg_blocked_cycles::no_targets          nan                       # average number of cycles each access was blocked
system.cpu.icache.writebacks::.writebacks          708                       # number of writebacks
system.cpu.icache.writebacks::total               708                       # number of writebacks
system.cpu.icache.demand_mshr_misses::.cpu.inst          923                       # number of demand (read+write) MSHR misses
system.cpu.icache.demand_mshr_misses::total          923                       # number of demand (read+write) MSHR misses
system.cpu.icache.overall_mshr_misses::.cpu.inst          923                       # number of overall MSHR misses
system.cpu.icache.overall_mshr_misses::total          923                       # number of overall MSHR misses
system.cpu.icache.demand_mshr_miss_latency::.cpu.inst     60407000                       # number of demand (read+write) MSHR miss cycles
system.cpu.icache.demand_mshr_miss_latency::total     60407000                       # number of demand (read+write) MSHR miss cycles
system.cpu.icache.overall_mshr_miss_latency::.cpu.inst     60407000                       # number of overall MSHR miss cycles
system.cpu.icache.overall_mshr_miss_latency::total     60407000                       # number of overall MSHR miss cycles
system.cpu.icache.demand_mshr_miss_rate::.cpu.inst     0.000153                       # mshr miss rate for demand accesses
system.cpu.icache.demand_mshr_miss_rate::total     0.000153                       # mshr miss rate for demand accesses
system.cpu.icache.overall_mshr_miss_rate::.cpu.inst     0.000153                       # mshr miss rate for overall accesses
system.cpu.icache.overall_mshr_miss_rate::total     0.000153                       # mshr miss rate for overall accesses
system.cpu.icache.demand_avg_mshr_miss_latency::.cpu.inst 65446.370531                       # average overall mshr miss latency
system.cpu.icache.demand_avg_mshr_miss_latency::total 65446.370531                       # average overall mshr miss latency
system.cpu.icache.overall_avg_mshr_miss_latency::.cpu.inst 65446.370531                       # average overall mshr miss latency
system.cpu.icache.overall_avg_mshr_miss_latency::total 65446.370531                       # average overall mshr miss latency
system.cpu.icache.replacements                    708                       # number of replacements
system.cpu.icache.ReadReq_hits::.cpu.inst      6045584                       # number of ReadReq hits
system.cpu.icache.ReadReq_hits::total         6045584                       # number of ReadReq hits
system.cpu.icache.ReadReq_misses::.cpu.inst          923                       # number of ReadReq misses
system.cpu.icache.ReadReq_misses::total           923                       # number of ReadReq misses
system.cpu.icache.ReadReq_miss_latency::.cpu.inst     62253000                       # number of ReadReq miss cycles
system.cpu.icache.ReadReq_miss_latency::total     62253000                       # number of ReadReq miss cycles
system.cpu.icache.ReadReq_accesses::.cpu.inst      6046507                       # number of ReadReq accesses(hits+misses)
system.cpu.icache.ReadReq_accesses::total      6046507                       # number of ReadReq accesses(hits+misses)
system.cpu.icache.ReadReq_miss_rate::.cpu.inst     0.000153                       # miss rate for ReadReq accesses
system.cpu.icache.ReadReq_miss_rate::total     0.000153                       # miss rate for ReadReq accesses
system.cpu.icache.ReadReq_avg_miss_latency::.cpu.inst 67446.370531                       # average ReadReq miss latency
system.cpu.icache.ReadReq_avg_miss_latency::total 67446.370531                       # average ReadReq miss latency
system.cpu.icache.ReadReq_mshr_misses::.cpu.inst          923                       # number of ReadReq MSHR misses
system.cpu.icache.ReadReq_mshr_misses::total          923                       # number of ReadReq MSHR misses
system.cpu.icache.ReadReq_mshr_miss_latency::.cpu.inst     60407000                       # number of ReadReq MSHR miss cycles
system.cpu.icache.ReadReq_mshr_miss_latency::total     60407000                       # number of ReadReq MSHR miss cycles
system.cpu.icache.ReadReq_mshr_miss_rate::.cpu.inst     0.000153                       # mshr miss rate for ReadReq accesses
system.cpu.icache.ReadReq_mshr_miss_rate::total     0.000153                       # mshr miss rate for ReadReq accesses
system.cpu.icache.ReadReq_avg_mshr_miss_latency::.cpu.inst 65446.370531                       # average ReadReq mshr miss latency
system.cpu.icache.ReadReq_avg_mshr_miss_latency::total 65446.370531                       # average ReadReq mshr miss latency
system.cpu.icache.power_state.pwrStateResidencyTicks::UNDEFINED 266883087000                       # Cumulative time (in ticks) in various power states
system.cpu.icache.tags.tagsinuse           214.976471                       # Cycle average of tags in use
system.cpu.icache.tags.total_refs             6046507                       # Total number of references to valid blocks.
system.cpu.icache.tags.sampled_refs               923                       # Sample count of references to valid blocks.
system.cpu.icache.tags.avg_refs           6550.928494                       # Average number of references to valid blocks.
system.cpu.icache.tags.warmup_cycle            108000                       # Cycle when the warmup percentage was hit.
system.cpu.icache.tags.occ_blocks::.cpu.inst   214.976471                       # Average occupied blocks per requestor
system.cpu.icache.tags.occ_percent::.cpu.inst     0.839752                       # Average percentage of cache occupancy
system.cpu.icache.tags.occ_percent::total     0.839752                       # Average percentage of cache occupancy
system.cpu.icache.tags.occ_task_id_blocks::1024          215                       # Occupied blocks per task id
system.cpu.icache.tags.age_task_id_blocks_1024::4          215                       # Occupied blocks per task id
system.cpu.icache.tags.occ_task_id_percent::1024     0.839844                       # Percentage of cache occupancy per task id
system.cpu.icache.tags.tag_accesses           6047430                       # Number of tag accesses
system.cpu.icache.tags.data_accesses          6047430                       # Number of data accesses
system.cpu.icache.tags.power_state.pwrStateResidencyTicks::UNDEFINED 266883087000                       # Cumulative time (in ticks) in various power states
system.cpu.itb.instHits                             0                       # ITB inst hits
system.cpu.itb.instMisses                           0                       # ITB inst misses
system.cpu.itb.readHits                             0                       # DTB read hits
system.cpu.itb.readMisses                           0                       # DTB read misses
system.cpu.itb.writeHits                            0                       # DTB write hits
system.cpu.itb.writeMisses                          0                       # DTB write misses
system.cpu.itb.inserts                              0                       # Number of times an entry is inserted into the TLB
system.cpu.itb.flushTlb                             0                       # Number of times complete TLB was flushed
system.cpu.itb.flushTlbMva                          0                       # Number of times TLB was flushed by MVA
system.cpu.itb.flushTlbMvaAsid                      0                       # Number of times TLB was flushed by MVA & ASID
system.cpu.itb.flushTlbAsid                         0                       # Number of times TLB was flushed by ASID
system.cpu.itb.flushedEntries                       0                       # Number of entries that have been flushed from TLB
system.cpu.itb.alignFaults                          0                       # Number of TLB faults due to alignment restrictions
system.cpu.itb.prefetchFaults                       0                       # Number of TLB faults due to prefetch
system.cpu.itb.domainFaults                         0                       # Number of TLB faults due to domain restrictions
system.cpu.itb.permsFaults                          0                       # Number of TLB faults due to permissions restrictions
system.cpu.itb.readAccesses                         0                       # DTB read accesses
system.cpu.itb.writeAccesses                        0                       # DTB write accesses
system.cpu.itb.instAccesses                         0                       # ITB inst accesses
system.cpu.itb.hits                                 0                       # Total TLB (inst and data) hits
system.cpu.itb.misses                               0                       # Total TLB (inst and data) misses
system.cpu.itb.accesses                             0                       # Total TLB (inst and data) accesses
system.cpu.itb.stage2_mmu.stage2_tlb.instHits            0                       # ITB inst hits
system.cpu.itb.stage2_mmu.stage2_tlb.instMisses            0                       # ITB inst misses
system.cpu.itb.stage2_mmu.stage2_tlb.readHits            0                       # DTB read hits
system.cpu.itb.stage2_mmu.stage2_tlb.readMisses            0                       # DTB read misses
system.cpu.itb.stage2_mmu.stage2_tlb.writeHits            0                       # DTB write hits
system.cpu.itb.stage2_mmu.stage2_tlb.writeMisses            0                       # DTB write misses
system.cpu.itb.stage2_mmu.stage2_tlb.inserts            0                       # Number of times an entry is inserted into the TLB
system.cpu.itb.stage2_mmu.stage2_tlb.flushTlb            0                       # Number of times complete TLB was flushed
system.cpu.itb.stage2_mmu.stage2_tlb.flushTlbMva            0                       # Number of times TLB was flushed by MVA
system.cpu.itb.stage2_mmu.stage2_tlb.flushTlbMvaAsid            0                       # Number of times TLB was flushed by MVA & ASID
system.cpu.itb.stage2_mmu.stage2_tlb.flushTlbAsid            0                       # Number of times TLB was flushed by ASID
system.cpu.itb.stage2_mmu.stage2_tlb.flushedEntries            0                       # Number of entries that have been flushed from TLB
system.cpu.itb.stage2_mmu.stage2_tlb.alignFaults            0                       # Number of TLB faults due to alignment restrictions
system.cpu.itb.stage2_mmu.stage2_tlb.prefetchFaults            0                       # Number of TLB faults due to prefetch
system.cpu.itb.stage2_mmu.stage2_tlb.domainFaults            0                       # Number of TLB faults due to domain restrictions
system.cpu.itb.stage2_mmu.stage2_tlb.permsFaults            0                       # Number of TLB faults due to permissions restrictions
system.cpu.itb.stage2_mmu.stage2_tlb.readAccesses            0                       # DTB read accesses
system.cpu.itb.stage2_mmu.stage2_tlb.writeAccesses            0                       # DTB write accesses
system.cpu.itb.stage2_mmu.stage2_tlb.instAccesses            0                       # ITB inst accesses
system.cpu.itb.stage2_mmu.stage2_tlb.hits            0                       # Total TLB (inst and data) hits
system.cpu.itb.stage2_mmu.stage2_tlb.misses            0                       # Total TLB (inst and data) misses
system.cpu.itb.stage2_mmu.stage2_tlb.accesses            0                       # Total TLB (inst and data) accesses
system.cpu.itb.stage2_mmu.stage2_tlb.walker.walks            0                       # Table walker walks requested
system.cpu.itb.stage2_mmu.stage2_tlb.walker.requestOrigin_Requested::Data            0                       # Table walker requests started/completed, data/inst
system.cpu.itb.stage2_mmu.stage2_tlb.walker.requestOrigin_Requested::Inst            0                       # Table walker requests started/completed, data/inst
system.cpu.itb.stage2_mmu.stage2_tlb.walker.requestOrigin_Requested::total            0                       # Table walker requests started/completed, data/inst
system.cpu.itb.stage2_mmu.stage2_tlb.walker.requestOrigin_Completed::Data            0                       # Table walker requests started/completed, data/inst
system.cpu.itb.stage2_mmu.stage2_tlb.walker.requestOrigin_Completed::Inst            0                       # Table walker requests started/completed, data/inst
system.cpu.itb.stage2_mmu.stage2_tlb.walker.requestOrigin_Completed::total            0                       # Table walker requests started/completed, data/inst
system.cpu.itb.stage2_mmu.stage2_tlb.walker.requestOrigin::total            0                       # Table walker requests started/completed, data/inst
system.cpu.itb.stage2_mmu.stage2_tlb.walker.power_state.pwrStateResidencyTicks::UNDEFINED 266883087000                       # Cumulative time (in ticks) in various power states
system.cpu.itb.walker.walks                         0                       # Table walker walks requested
system.cpu.itb.walker.requestOrigin_Requested::Data            0                       # Table walker requests started/completed, data/inst
system.cpu.itb.walker.requestOrigin_Requested::Inst            0                       # Table walker requests started/completed, data/inst
system.cpu.itb.walker.requestOrigin_Requested::total            0                       # Table walker requests started/completed, data/inst
system.cpu.itb.walker.requestOrigin_Completed::Data            0                       # Table walker requests started/completed, data/inst
system.cpu.itb.walker.requestOrigin_Completed::Inst            0                       # Table walker requests started/completed, data/inst
system.cpu.itb.walker.requestOrigin_Completed::total            0                       # Table walker requests started/completed, data/inst
system.cpu.itb.walker.requestOrigin::total            0                       # Table walker requests started/completed, data/inst
system.cpu.itb.walker.power_state.pwrStateResidencyTicks::UNDEFINED 266883087000                       # Cumulative time (in ticks) in various power states
system.cpu.power_state.pwrStateResidencyTicks::ON 266883087000                       # Cumulative time (in ticks) in various power states
system.cpu.thread_0.numInsts                100000000                       # Number of Instructions committed
system.cpu.thread_0.numOps                  100003676                       # Number of Ops committed
system.cpu.thread_0.numMemRefs                      0                       # Number of Memory References
system.cpu_clk_domain.clock                      1000                       # Clock period in ticks
system.cpu_voltage_domain.voltage                   1                       # Voltage in Volts
system.l2.demand_hits::.cpu.inst                  424                       # number of demand (read+write) hits
system.l2.demand_hits::.cpu.data                81422                       # number of demand (read+write) hits
system.l2.demand_hits::total                    81846                       # number of demand (read+write) hits
system.l2.overall_hits::.cpu.inst                 424                       # number of overall hits
system.l2.overall_hits::.cpu.data               81422                       # number of overall hits
system.l2.overall_hits::total                   81846                       # number of overall hits
system.l2.demand_misses::.cpu.inst                499                       # number of demand (read+write) misses
system.l2.demand_misses::.cpu.data            1487617                       # number of demand (read+write) misses
system.l2.demand_misses::total                1488116                       # number of demand (read+write) misses
system.l2.overall_misses::.cpu.inst               499                       # number of overall misses
system.l2.overall_misses::.cpu.data           1487617                       # number of overall misses
system.l2.overall_misses::total               1488116                       # number of overall misses
system.l2.demand_miss_latency::.cpu.inst     48510000                       # number of demand (read+write) miss cycles
system.l2.demand_miss_latency::.cpu.data 151479522000                       # number of demand (read+write) miss cycles
system.l2.demand_miss_latency::total     151528032000                       # number of demand (read+write) miss cycles
system.l2.overall_miss_latency::.cpu.inst     48510000                       # number of overall miss cycles
system.l2.overall_miss_latency::.cpu.data 151479522000                       # number of overall miss cycles
system.l2.overall_miss_latency::total    151528032000                       # number of overall miss cycles
system.l2.demand_accesses::.cpu.inst              923                       # number of demand (read+write) accesses
system.l2.demand_accesses::.cpu.data          1569039                       # number of demand (read+write) accesses
system.l2.demand_accesses::total              1569962                       # number of demand (read+write) accesses
system.l2.overall_accesses::.cpu.inst             923                       # number of overall (read+write) accesses
system.l2.overall_accesses::.cpu.data         1569039                       # number of overall (read+write) accesses
system.l2.overall_accesses::total             1569962                       # number of overall (read+write) accesses
system.l2.demand_miss_rate::.cpu.inst        0.540628                       # miss rate for demand accesses
system.l2.demand_miss_rate::.cpu.data        0.948107                       # miss rate for demand accesses
system.l2.demand_miss_rate::total            0.947868                       # miss rate for demand accesses
system.l2.overall_miss_rate::.cpu.inst       0.540628                       # miss rate for overall accesses
system.l2.overall_miss_rate::.cpu.data       0.948107                       # miss rate for overall accesses
system.l2.overall_miss_rate::total           0.947868                       # miss rate for overall accesses
system.l2.demand_avg_miss_latency::.cpu.inst 97214.428858                       # average overall miss latency
system.l2.demand_avg_miss_latency::.cpu.data 101826.963526                       # average overall miss latency
system.l2.demand_avg_miss_latency::total 101825.416836                       # average overall miss latency
system.l2.overall_avg_miss_latency::.cpu.inst 97214.428858                       # average overall miss latency
system.l2.overall_avg_miss_latency::.cpu.data 101826.963526                       # average overall miss latency
system.l2.overall_avg_miss_latency::total 101825.416836                       # average overall miss latency
system.l2.blocked_cycles::no_mshrs                  0                       # number of cycles access was blocked
system.l2.blocked_cycles::no_targets                0                       # number of cycles access was blocked
system.l2.blocked::no_mshrs                         0                       # number of cycles access was blocked
system.l2.blocked::no_targets                       0                       # number of cycles access was blocked
system.l2.avg_blocked_cycles::no_mshrs            nan                       # average number of cycles each access was blocked
system.l2.avg_blocked_cycles::no_targets          nan                       # average number of cycles each access was blocked
system.l2.writebacks::.writebacks             1471134                       # number of writebacks
system.l2.writebacks::total                   1471134                       # number of writebacks
system.l2.demand_mshr_hits::.cpu.inst               1                       # number of demand (read+write) MSHR hits
system.l2.demand_mshr_hits::.cpu.data               3                       # number of demand (read+write) MSHR hits
system.l2.demand_mshr_hits::total                   4                       # number of demand (read+write) MSHR hits
system.l2.overall_mshr_hits::.cpu.inst              1                       # number of overall MSHR hits
system.l2.overall_mshr_hits::.cpu.data              3                       # number of overall MSHR hits
system.l2.overall_mshr_hits::total                  4                       # number of overall MSHR hits
system.l2.demand_mshr_misses::.cpu.inst           498                       # number of demand (read+write) MSHR misses
system.l2.demand_mshr_misses::.cpu.data       1487614                       # number of demand (read+write) MSHR misses
system.l2.demand_mshr_misses::total           1488112                       # number of demand (read+write) MSHR misses
system.l2.overall_mshr_misses::.cpu.inst          498                       # number of overall MSHR misses
system.l2.overall_mshr_misses::.cpu.data      1487614                       # number of overall MSHR misses
system.l2.overall_mshr_misses::total          1488112                       # number of overall MSHR misses
system.l2.demand_mshr_miss_latency::.cpu.inst     38463000                       # number of demand (read+write) MSHR miss cycles
system.l2.demand_mshr_miss_latency::.cpu.data 121726986000                       # number of demand (read+write) MSHR miss cycles
system.l2.demand_mshr_miss_latency::total 121765449000                       # number of demand (read+write) MSHR miss cycles
system.l2.overall_mshr_miss_latency::.cpu.inst     38463000                       # number of overall MSHR miss cycles
system.l2.overall_mshr_miss_latency::.cpu.data 121726986000                       # number of overall MSHR miss cycles
system.l2.overall_mshr_miss_latency::total 121765449000                       # number of overall MSHR miss cycles
system.l2.demand_mshr_miss_rate::.cpu.inst     0.539545                       # mshr miss rate for demand accesses
system.l2.demand_mshr_miss_rate::.cpu.data     0.948105                       # mshr miss rate for demand accesses
system.l2.demand_mshr_miss_rate::total       0.947865                       # mshr miss rate for demand accesses
system.l2.overall_mshr_miss_rate::.cpu.inst     0.539545                       # mshr miss rate for overall accesses
system.l2.overall_mshr_miss_rate::.cpu.data     0.948105                       # mshr miss rate for overall accesses
system.l2.overall_mshr_miss_rate::total      0.947865                       # mshr miss rate for overall accesses
system.l2.demand_avg_mshr_miss_latency::.cpu.inst 77234.939759                       # average overall mshr miss latency
system.l2.demand_avg_mshr_miss_latency::.cpu.data 81826.996788                       # average overall mshr miss latency
system.l2.demand_avg_mshr_miss_latency::total 81825.460046                       # average overall mshr miss latency
system.l2.overall_avg_mshr_miss_latency::.cpu.inst 77234.939759                       # average overall mshr miss latency
system.l2.overall_avg_mshr_miss_latency::.cpu.data 81826.996788                       # average overall mshr miss latency
system.l2.overall_avg_mshr_miss_latency::total 81825.460046                       # average overall mshr miss latency
system.l2.replacements                        1471728                       # number of replacements
system.l2.WritebackDirty_hits::.writebacks      1545407                       # number of WritebackDirty hits
system.l2.WritebackDirty_hits::total          1545407                       # number of WritebackDirty hits
system.l2.WritebackDirty_accesses::.writebacks      1545407                       # number of WritebackDirty accesses(hits+misses)
system.l2.WritebackDirty_accesses::total      1545407                       # number of WritebackDirty accesses(hits+misses)
system.l2.WritebackClean_hits::.writebacks          674                       # number of WritebackClean hits
system.l2.WritebackClean_hits::total              674                       # number of WritebackClean hits
system.l2.WritebackClean_accesses::.writebacks          674                       # number of WritebackClean accesses(hits+misses)
system.l2.WritebackClean_accesses::total          674                       # number of WritebackClean accesses(hits+misses)
system.l2.ReadExReq_hits::.cpu.data             34864                       # number of ReadExReq hits
system.l2.ReadExReq_hits::total                 34864                       # number of ReadExReq hits
system.l2.ReadExReq_misses::.cpu.data         1487500                       # number of ReadExReq misses
system.l2.ReadExReq_misses::total             1487500                       # number of ReadExReq misses
system.l2.ReadExReq_miss_latency::.cpu.data 151467704000                       # number of ReadExReq miss cycles
system.l2.ReadExReq_miss_latency::total  151467704000                       # number of ReadExReq miss cycles
system.l2.ReadExReq_accesses::.cpu.data       1522364                       # number of ReadExReq accesses(hits+misses)
system.l2.ReadExReq_accesses::total           1522364                       # number of ReadExReq accesses(hits+misses)
system.l2.ReadExReq_miss_rate::.cpu.data     0.977099                       # miss rate for ReadExReq accesses
system.l2.ReadExReq_miss_rate::total         0.977099                       # miss rate for ReadExReq accesses
system.l2.ReadExReq_avg_miss_latency::.cpu.data 101827.027899                       # average ReadExReq miss latency
system.l2.ReadExReq_avg_miss_latency::total 101827.027899                       # average ReadExReq miss latency
system.l2.ReadExReq_mshr_misses::.cpu.data      1487500                       # number of ReadExReq MSHR misses
system.l2.ReadExReq_mshr_misses::total        1487500                       # number of ReadExReq MSHR misses
system.l2.ReadExReq_mshr_miss_latency::.cpu.data 121717704000                       # number of ReadExReq MSHR miss cycles
system.l2.ReadExReq_mshr_miss_latency::total 121717704000                       # number of ReadExReq MSHR miss cycles
system.l2.ReadExReq_mshr_miss_rate::.cpu.data     0.977099                       # mshr miss rate for ReadExReq accesses
system.l2.ReadExReq_mshr_miss_rate::total     0.977099                       # mshr miss rate for ReadExReq accesses
system.l2.ReadExReq_avg_mshr_miss_latency::.cpu.data 81827.027899                       # average ReadExReq mshr miss latency
system.l2.ReadExReq_avg_mshr_miss_latency::total 81827.027899                       # average ReadExReq mshr miss latency
system.l2.ReadCleanReq_hits::.cpu.inst            424                       # number of ReadCleanReq hits
system.l2.ReadCleanReq_hits::total                424                       # number of ReadCleanReq hits
system.l2.ReadCleanReq_misses::.cpu.inst          499                       # number of ReadCleanReq misses
system.l2.ReadCleanReq_misses::total              499                       # number of ReadCleanReq misses
system.l2.ReadCleanReq_miss_latency::.cpu.inst     48510000                       # number of ReadCleanReq miss cycles
system.l2.ReadCleanReq_miss_latency::total     48510000                       # number of ReadCleanReq miss cycles
system.l2.ReadCleanReq_accesses::.cpu.inst          923                       # number of ReadCleanReq accesses(hits+misses)
system.l2.ReadCleanReq_accesses::total            923                       # number of ReadCleanReq accesses(hits+misses)
system.l2.ReadCleanReq_miss_rate::.cpu.inst     0.540628                       # miss rate for ReadCleanReq accesses
system.l2.ReadCleanReq_miss_rate::total      0.540628                       # miss rate for ReadCleanReq accesses
system.l2.ReadCleanReq_avg_miss_latency::.cpu.inst 97214.428858                       # average ReadCleanReq miss latency
system.l2.ReadCleanReq_avg_miss_latency::total 97214.428858                       # average ReadCleanReq miss latency
system.l2.ReadCleanReq_mshr_hits::.cpu.inst            1                       # number of ReadCleanReq MSHR hits
system.l2.ReadCleanReq_mshr_hits::total             1                       # number of ReadCleanReq MSHR hits
system.l2.ReadCleanReq_mshr_misses::.cpu.inst          498                       # number of ReadCleanReq MSHR misses
system.l2.ReadCleanReq_mshr_misses::total          498                       # number of ReadCleanReq MSHR misses
system.l2.ReadCleanReq_mshr_miss_latency::.cpu.inst     38463000                       # number of ReadCleanReq MSHR miss cycles
system.l2.ReadCleanReq_mshr_miss_latency::total     38463000                       # number of ReadCleanReq MSHR miss cycles
system.l2.ReadCleanReq_mshr_miss_rate::.cpu.inst     0.539545                       # mshr miss rate for ReadCleanReq accesses
system.l2.ReadCleanReq_mshr_miss_rate::total     0.539545                       # mshr miss rate for ReadCleanReq accesses
system.l2.ReadCleanReq_avg_mshr_miss_latency::.cpu.inst 77234.939759                       # average ReadCleanReq mshr miss latency
system.l2.ReadCleanReq_avg_mshr_miss_latency::total 77234.939759                       # average ReadCleanReq mshr miss latency
system.l2.ReadSharedReq_hits::.cpu.data         46558                       # number of ReadSharedReq hits
system.l2.ReadSharedReq_hits::total             46558                       # number of ReadSharedReq hits
system.l2.ReadSharedReq_misses::.cpu.data          117                       # number of ReadSharedReq misses
system.l2.ReadSharedReq_misses::total             117                       # number of ReadSharedReq misses
system.l2.ReadSharedReq_miss_latency::.cpu.data     11818000                       # number of ReadSharedReq miss cycles
system.l2.ReadSharedReq_miss_latency::total     11818000                       # number of ReadSharedReq miss cycles
system.l2.ReadSharedReq_accesses::.cpu.data        46675                       # number of ReadSharedReq accesses(hits+misses)
system.l2.ReadSharedReq_accesses::total         46675                       # number of ReadSharedReq accesses(hits+misses)
system.l2.ReadSharedReq_miss_rate::.cpu.data     0.002507                       # miss rate for ReadSharedReq accesses
system.l2.ReadSharedReq_miss_rate::total     0.002507                       # miss rate for ReadSharedReq accesses
system.l2.ReadSharedReq_avg_miss_latency::.cpu.data 101008.547009                       # average ReadSharedReq miss latency
system.l2.ReadSharedReq_avg_miss_latency::total 101008.547009                       # average ReadSharedReq miss latency
system.l2.ReadSharedReq_mshr_hits::.cpu.data            3                       # number of ReadSharedReq MSHR hits
system.l2.ReadSharedReq_mshr_hits::total            3                       # number of ReadSharedReq MSHR hits
system.l2.ReadSharedReq_mshr_misses::.cpu.data          114                       # number of ReadSharedReq MSHR misses
system.l2.ReadSharedReq_mshr_misses::total          114                       # number of ReadSharedReq MSHR misses
system.l2.ReadSharedReq_mshr_miss_latency::.cpu.data      9282000                       # number of ReadSharedReq MSHR miss cycles
system.l2.ReadSharedReq_mshr_miss_latency::total      9282000                       # number of ReadSharedReq MSHR miss cycles
system.l2.ReadSharedReq_mshr_miss_rate::.cpu.data     0.002442                       # mshr miss rate for ReadSharedReq accesses
system.l2.ReadSharedReq_mshr_miss_rate::total     0.002442                       # mshr miss rate for ReadSharedReq accesses
system.l2.ReadSharedReq_avg_mshr_miss_latency::.cpu.data 81421.052632                       # average ReadSharedReq mshr miss latency
system.l2.ReadSharedReq_avg_mshr_miss_latency::total 81421.052632                       # average ReadSharedReq mshr miss latency
system.l2.power_state.pwrStateResidencyTicks::UNDEFINED 266883087000                       # Cumulative time (in ticks) in various power states
system.l2.tags.tagsinuse                 16296.967420                       # Cycle average of tags in use
system.l2.tags.total_refs                     3116159                       # Total number of references to valid blocks.
system.l2.tags.sampled_refs                   1488112                       # Sample count of references to valid blocks.
system.l2.tags.avg_refs                      2.094035                       # Average number of references to valid blocks.
system.l2.tags.warmup_cycle                     87000                       # Cycle when the warmup percentage was hit.
system.l2.tags.occ_blocks::.cpu.inst         4.780500                       # Average occupied blocks per requestor
system.l2.tags.occ_blocks::.cpu.data     16292.186920                       # Average occupied blocks per requestor
system.l2.tags.occ_percent::.cpu.inst        0.000292                       # Average percentage of cache occupancy
system.l2.tags.occ_percent::.cpu.data        0.994396                       # Average percentage of cache occupancy
system.l2.tags.occ_percent::total            0.994688                       # Average percentage of cache occupancy
system.l2.tags.occ_task_id_blocks::1024         16384                       # Occupied blocks per task id
system.l2.tags.age_task_id_blocks_1024::0           55                       # Occupied blocks per task id
system.l2.tags.age_task_id_blocks_1024::1          502                       # Occupied blocks per task id
system.l2.tags.age_task_id_blocks_1024::2         5016                       # Occupied blocks per task id
system.l2.tags.age_task_id_blocks_1024::3        10809                       # Occupied blocks per task id
system.l2.tags.age_task_id_blocks_1024::4            2                       # Occupied blocks per task id
system.l2.tags.occ_task_id_percent::1024            1                       # Percentage of cache occupancy per task id
system.l2.tags.tag_accesses                   7720438                       # Number of tag accesses
system.l2.tags.data_accesses                  7720438                       # Number of data accesses
system.l2.tags.power_state.pwrStateResidencyTicks::UNDEFINED 266883087000                       # Cumulative time (in ticks) in various power states
system.mem_ctrls.avgPriority_.writebacks::samples   1471134.00                       # Average QoS priority value for accepted requests
system.mem_ctrls.avgPriority_.cpu.inst::samples       498.00                       # Average QoS priority value for accepted requests
system.mem_ctrls.avgPriority_.cpu.data::samples   1487614.00                       # Average QoS priority value for accepted requests
system.mem_ctrls.priorityMinLatency      0.000000018750                       # per QoS priority minimum request to response latency (s)
system.mem_ctrls.priorityMaxLatency      0.002168934500                       # per QoS priority maximum request to response latency (s)
system.mem_ctrls.numReadWriteTurnArounds        81886                       # Number of turnarounds from READ to WRITE
system.mem_ctrls.numWriteReadTurnArounds        81887                       # Number of turnarounds from WRITE to READ
system.mem_ctrls.numStayReadState             4451207                       # Number of times bus staying in READ state
system.mem_ctrls.numStayWriteState            1393278                       # Number of times bus staying in WRITE state
system.mem_ctrls.readReqs                     1488112                       # Number of read requests accepted
system.mem_ctrls.writeReqs                    1471134                       # Number of write requests accepted
system.mem_ctrls.readBursts                   1488112                       # Number of controller read bursts, including those serviced by the write queue
system.mem_ctrls.writeBursts                  1471134                       # Number of controller write bursts, including those merged in the write queue
system.mem_ctrls.servicedByWrQ                      0                       # Number of controller read bursts serviced by the write queue
system.mem_ctrls.mergedWrBursts                     0                       # Number of controller write bursts merged with an existing one
system.mem_ctrls.neitherReadNorWriteReqs            0                       # Number of requests that are neither read nor write
system.mem_ctrls.avgRdQLen                       1.00                       # Average read queue length when enqueuing
system.mem_ctrls.avgWrQLen                      24.57                       # Average write queue length when enqueuing
system.mem_ctrls.numRdRetry                         0                       # Number of times read queue was full causing retry
system.mem_ctrls.numWrRetry                         0                       # Number of times write queue was full causing retry
system.mem_ctrls.readPktSize::0                     0                       # Read request sizes (log2)
system.mem_ctrls.readPktSize::1                     0                       # Read request sizes (log2)
system.mem_ctrls.readPktSize::2                     0                       # Read request sizes (log2)
system.mem_ctrls.readPktSize::3                     0                       # Read request sizes (log2)
system.mem_ctrls.readPktSize::4                     0                       # Read request sizes (log2)
system.mem_ctrls.readPktSize::5                     0                       # Read request sizes (log2)
system.mem_ctrls.readPktSize::6               1488112                       # Read request sizes (log2)
system.mem_ctrls.writePktSize::0                    0                       # Write request sizes (log2)
system.mem_ctrls.writePktSize::1                    0                       # Write request sizes (log2)
system.mem_ctrls.writePktSize::2                    0                       # Write request sizes (log2)
system.mem_ctrls.writePktSize::3                    0                       # Write request sizes (log2)
system.mem_ctrls.writePktSize::4                    0                       # Write request sizes (log2)
system.mem_ctrls.writePktSize::5                    0                       # Write request sizes (log2)
system.mem_ctrls.writePktSize::6              1471134                       # Write request sizes (log2)
system.mem_ctrls.rdQLenPdf::0                 1488031                       # What read queue length does an incoming req see
system.mem_ctrls.rdQLenPdf::1                      76                       # What read queue length does an incoming req see
system.mem_ctrls.rdQLenPdf::2                       5                       # What read queue length does an incoming req see
system.mem_ctrls.rdQLenPdf::3                       0                       # What read queue length does an incoming req see
system.mem_ctrls.rdQLenPdf::4                       0                       # What read queue length does an incoming req see
system.mem_ctrls.rdQLenPdf::5                       0                       # What read queue length does an incoming req see
system.mem_ctrls.rdQLenPdf::6                       0                       # What read queue length does an incoming req see
system.mem_ctrls.rdQLenPdf::7                       0                       # What read queue length does an incoming req see
system.mem_ctrls.rdQLenPdf::8                       0                       # What read queue length does an incoming req see
system.mem_ctrls.rdQLenPdf::9                       0                       # What read queue length does an incoming req see
system.mem_ctrls.rdQLenPdf::10                      0                       # What read queue length does an incoming req see
system.mem_ctrls.rdQLenPdf::11                      0                       # What read queue length does an incoming req see
[...]
system.mem_ctrls.dram.bw_write::.writebacks    352785847                       # Write bandwidth from this memory (bytes/s)
system.mem_ctrls.dram.bw_write::total       352785847                       # Write bandwidth from this memory (bytes/s)
system.mem_ctrls.dram.bw_total::.writebacks    352785847                       # Total bandwidth to/from this memory (bytes/s)
system.mem_ctrls.dram.bw_total::.cpu.inst       119423                       # Total bandwidth to/from this memory (bytes/s)
system.mem_ctrls.dram.bw_total::.cpu.data    356737840                       # Total bandwidth to/from this memory (bytes/s)
system.mem_ctrls.dram.bw_total::total       709643111                       # Total bandwidth to/from this memory (bytes/s)
system.mem_ctrls.dram.readBursts              1488112                       # Number of DRAM read bursts
system.mem_ctrls.dram.writeBursts             1471110                       # Number of DRAM write bursts
system.mem_ctrls.dram.perBankRdBursts::0        93032                       # Per bank write bursts
system.mem_ctrls.dram.perBankRdBursts::1        92977                       # Per bank write bursts
system.mem_ctrls.dram.perBankRdBursts::2        93002                       # Per bank write bursts
system.mem_ctrls.dram.perBankRdBursts::3        92952                       # Per bank write bursts
system.mem_ctrls.dram.perBankRdBursts::4        92983                       # Per bank write bursts
system.mem_ctrls.dram.perBankRdBursts::5        93010                       # Per bank write bursts
system.mem_ctrls.dram.perBankRdBursts::6        93062                       # Per bank write bursts
system.mem_ctrls.dram.perBankRdBursts::7        93077                       # Per bank write bursts
system.mem_ctrls.dram.perBankRdBursts::8        93153                       # Per bank write bursts
system.mem_ctrls.dram.perBankRdBursts::9        93077                       # Per bank write bursts
system.mem_ctrls.dram.perBankRdBursts::10        92956                       # Per bank write bursts
system.mem_ctrls.dram.perBankRdBursts::11        92950                       # Per bank write bursts
system.mem_ctrls.dram.perBankRdBursts::12        92997                       # Per bank write bursts
system.mem_ctrls.dram.perBankRdBursts::13        92953                       # Per bank write bursts
system.mem_ctrls.dram.perBankRdBursts::14        92960                       # Per bank write bursts
system.mem_ctrls.dram.perBankRdBursts::15        92971                       # Per bank write bursts
system.mem_ctrls.dram.perBankWrBursts::0        91908                       # Per bank write bursts
system.mem_ctrls.dram.perBankWrBursts::1        91944                       # Per bank write bursts
system.mem_ctrls.dram.perBankWrBursts::2        91930                       # Per bank write bursts
system.mem_ctrls.dram.perBankWrBursts::3        91919                       # Per bank write bursts
system.mem_ctrls.dram.perBankWrBursts::4        91911                       # Per bank write bursts
system.mem_ctrls.dram.perBankWrBursts::5        91969                       # Per bank write bursts
system.mem_ctrls.dram.perBankWrBursts::6        92032                       # Per bank write bursts
system.mem_ctrls.dram.perBankWrBursts::7        92032                       # Per bank write bursts
system.mem_ctrls.dram.perBankWrBursts::8        92032                       # Per bank write bursts
system.mem_ctrls.dram.perBankWrBursts::9        92009                       # Per bank write bursts
system.mem_ctrls.dram.perBankWrBursts::10        91904                       # Per bank write bursts
system.mem_ctrls.dram.perBankWrBursts::11        91904                       # Per bank write bursts
system.mem_ctrls.dram.perBankWrBursts::12        91904                       # Per bank write bursts
system.mem_ctrls.dram.perBankWrBursts::13        91904                       # Per bank write bursts
system.mem_ctrls.dram.perBankWrBursts::14        91904                       # Per bank write bursts
system.mem_ctrls.dram.perBankWrBursts::15        91904                       # Per bank write bursts
system.mem_ctrls.dram.totQLat             17577464250                       # Total ticks spent queuing
system.mem_ctrls.dram.totBusLat            7440560000                       # Total ticks spent in databus transfers
system.mem_ctrls.dram.totMemAccLat        45479564250                       # Total ticks spent from burst creation until serviced by the DRAM
system.mem_ctrls.dram.avgQLat                11811.92                       # Average queueing delay per DRAM burst
system.mem_ctrls.dram.avgBusLat               5000.00                       # Average bus latency per DRAM burst
system.mem_ctrls.dram.avgMemAccLat           30561.92                       # Average memory access latency per DRAM burst
system.mem_ctrls.dram.readRowHits             1314969                       # Number of row buffer hits during reads
system.mem_ctrls.dram.writeRowHits            1306522                       # Number of row buffer hits during writes
system.mem_ctrls.dram.readRowHitRate            88.36                       # Row buffer hit rate for reads
system.mem_ctrls.dram.writeRowHitRate           88.81                       # Row buffer hit rate for writes
system.mem_ctrls.dram.bytesPerActivate::samples       337729                       # Bytes accessed per row activation
system.mem_ctrls.dram.bytesPerActivate::mean   560.773780                       # Bytes accessed per row activation
system.mem_ctrls.dram.bytesPerActivate::gmean   372.276153                       # Bytes accessed per row activation
system.mem_ctrls.dram.bytesPerActivate::stdev   411.243182                       # Bytes accessed per row activation
system.mem_ctrls.dram.bytesPerActivate::0-127        15429      4.57%      4.57% # Bytes accessed per row activation
system.mem_ctrls.dram.bytesPerActivate::128-255       121775     36.06%     40.63% # Bytes accessed per row activation
system.mem_ctrls.dram.bytesPerActivate::256-383        16007      4.74%     45.37% # Bytes accessed per row activation
system.mem_ctrls.dram.bytesPerActivate::384-511        12817      3.80%     49.16% # Bytes accessed per row activation
system.mem_ctrls.dram.bytesPerActivate::512-639        12347      3.66%     52.82% # Bytes accessed per row activation
system.mem_ctrls.dram.bytesPerActivate::640-767         9427      2.79%     55.61% # Bytes accessed per row activation
system.mem_ctrls.dram.bytesPerActivate::768-895        12294      3.64%     59.25% # Bytes accessed per row activation
system.mem_ctrls.dram.bytesPerActivate::896-1023        12750      3.78%     63.02% # Bytes accessed per row activation
system.mem_ctrls.dram.bytesPerActivate::1024-1151       124883     36.98%    100.00% # Bytes accessed per row activation
system.mem_ctrls.dram.bytesPerActivate::total       337729                       # Bytes accessed per row activation
system.mem_ctrls.dram.bytesRead              95239168                       # Total number of bytes read from DRAM
system.mem_ctrls.dram.bytesWritten           94151040                       # Total number of bytes written to DRAM
system.mem_ctrls.dram.avgRdBW              356.857263                       # Average DRAM read bandwidth in MiBytes/s
system.mem_ctrls.dram.avgWrBW              352.780092                       # Average DRAM write bandwidth in MiBytes/s
system.mem_ctrls.dram.peakBW                 12800.00                       # Theoretical peak bandwidth in MiByte/s
system.mem_ctrls.dram.busUtil                    5.54                       # Data bus utilization in percentage
system.mem_ctrls.dram.busUtilRead                2.79                       # Data bus utilization in percentage for reads
system.mem_ctrls.dram.busUtilWrite               2.76                       # Data bus utilization in percentage for writes
system.mem_ctrls.dram.pageHitRate               88.59                       # Row buffer hit rate, read and write combined
system.mem_ctrls.dram.power_state.pwrStateResidencyTicks::UNDEFINED 266883087000                       # Cumulative time (in ticks) in various power states
system.mem_ctrls.dram.rank0.actEnergy      1206759960                       # Energy for activate commands per rank (pJ)
system.mem_ctrls.dram.rank0.preEnergy       641408130                       # Energy for precharge commands per rank (pJ)
system.mem_ctrls.dram.rank0.readEnergy     5312838300                       # Energy for read commands per rank (pJ)
system.mem_ctrls.dram.rank0.writeEnergy    3840066900                       # Energy for write commands per rank (pJ)
system.mem_ctrls.dram.rank0.refreshEnergy 21067400640.000004                       # Energy for refresh commands per rank (pJ)
system.mem_ctrls.dram.rank0.actBackEnergy  61847042880                       # Energy for active background per rank (pJ)
system.mem_ctrls.dram.rank0.preBackEnergy  50401385280                       # Energy for precharge background per rank (pJ)
system.mem_ctrls.dram.rank0.actPowerDownEnergy            0                       # Energy for active power-down per rank (pJ)
system.mem_ctrls.dram.rank0.prePowerDownEnergy            0                       # Energy for precharge power-down per rank (pJ)
system.mem_ctrls.dram.rank0.selfRefreshEnergy            0                       # Energy for self refresh per rank (pJ)
system.mem_ctrls.dram.rank0.totalEnergy  144316902090                       # Total energy per rank (pJ)
system.mem_ctrls.dram.rank0.averagePower   540.749523                       # Core power per rank (mW)
system.mem_ctrls.dram.rank0.totalIdleTime            0                       # Total Idle time Per DRAM Rank
system.mem_ctrls.dram.rank0.pwrStateTime::IDLE 129015669750                       # Time in different power states
system.mem_ctrls.dram.rank0.pwrStateTime::REF   8911760000                       # Time in different power states
system.mem_ctrls.dram.rank0.pwrStateTime::SREF            0                       # Time in different power states
system.mem_ctrls.dram.rank0.pwrStateTime::PRE_PDN            0                       # Time in different power states
system.mem_ctrls.dram.rank0.pwrStateTime::ACT 128955657250                       # Time in different power states
system.mem_ctrls.dram.rank0.pwrStateTime::ACT_PDN            0                       # Time in different power states
system.mem_ctrls.dram.rank1.actEnergy      1204639380                       # Energy for activate commands per rank (pJ)
system.mem_ctrls.dram.rank1.preEnergy       640273425                       # Energy for precharge commands per rank (pJ)
system.mem_ctrls.dram.rank1.readEnergy     5312281380                       # Energy for read commands per rank (pJ)
system.mem_ctrls.dram.rank1.writeEnergy    3839101200                       # Energy for write commands per rank (pJ)
system.mem_ctrls.dram.rank1.refreshEnergy 21067400640.000004                       # Energy for refresh commands per rank (pJ)
system.mem_ctrls.dram.rank1.actBackEnergy  61862966970                       # Energy for active background per rank (pJ)
system.mem_ctrls.dram.rank1.preBackEnergy  50387975520                       # Energy for precharge background per rank (pJ)
system.mem_ctrls.dram.rank1.actPowerDownEnergy            0                       # Energy for active power-down per rank (pJ)
system.mem_ctrls.dram.rank1.prePowerDownEnergy            0                       # Energy for precharge power-down per rank (pJ)
system.mem_ctrls.dram.rank1.selfRefreshEnergy            0                       # Energy for self refresh per rank (pJ)
system.mem_ctrls.dram.rank1.totalEnergy  144314638515                       # Total energy per rank (pJ)
system.mem_ctrls.dram.rank1.averagePower   540.741042                       # Core power per rank (mW)
system.mem_ctrls.dram.rank1.totalIdleTime            0                       # Total Idle time Per DRAM Rank
system.mem_ctrls.dram.rank1.pwrStateTime::IDLE 128985213250                       # Time in different power states
system.mem_ctrls.dram.rank1.pwrStateTime::REF   8911760000                       # Time in different power states
system.mem_ctrls.dram.rank1.pwrStateTime::SREF            0                       # Time in different power states
system.mem_ctrls.dram.rank1.pwrStateTime::PRE_PDN            0                       # Time in different power states
system.mem_ctrls.dram.rank1.pwrStateTime::ACT 128986113750                       # Time in different power states
system.mem_ctrls.dram.rank1.pwrStateTime::ACT_PDN            0                       # Time in different power states
system.mem_ctrls.power_state.pwrStateResidencyTicks::UNDEFINED 266883087000                       # Cumulative time (in ticks) in various power states
system.membus.trans_dist::ReadResp                612                       # Transaction distribution
system.membus.trans_dist::WritebackDirty      1471134                       # Transaction distribution
system.membus.trans_dist::CleanEvict              380                       # Transaction distribution
system.membus.trans_dist::ReadExReq           1487500                       # Transaction distribution
system.membus.trans_dist::ReadExResp          1487500                       # Transaction distribution
system.membus.trans_dist::ReadSharedReq           612                       # Transaction distribution
system.membus.pkt_count_system.l2.mem_side_port::system.mem_ctrls.port      4447738                       # Packet count per connected requestor and responder (bytes)
system.membus.pkt_count::total                4447738                       # Packet count per connected requestor and responder (bytes)
system.membus.pkt_size_system.l2.mem_side_port::system.mem_ctrls.port    189391744                       # Cumulative packet size per connected requestor and responder (bytes)
system.membus.pkt_size::total               189391744                       # Cumulative packet size per connected requestor and responder (bytes)
system.membus.snoops                                0                       # Total snoops (count)
system.membus.snoopTraffic                          0                       # Total snoop traffic (bytes)
system.membus.snoop_fanout::samples           1488112                       # Request fanout histogram
system.membus.snoop_fanout::mean                    0                       # Request fanout histogram
system.membus.snoop_fanout::stdev                   0                       # Request fanout histogram
system.membus.snoop_fanout::underflows              0      0.00%      0.00% # Request fanout histogram
system.membus.snoop_fanout::0                 1488112    100.00%    100.00% # Request fanout histogram
system.membus.snoop_fanout::1                       0      0.00%    100.00% # Request fanout histogram
system.membus.snoop_fanout::overflows               0      0.00%    100.00% # Request fanout histogram
system.membus.snoop_fanout::min_value               0                       # Request fanout histogram
system.membus.snoop_fanout::max_value               0                       # Request fanout histogram
system.membus.snoop_fanout::total             1488112                       # Request fanout histogram
system.membus.power_state.pwrStateResidencyTicks::UNDEFINED 266883087000                       # Cumulative time (in ticks) in various power states
system.membus.reqLayer0.occupancy          8844162000                       # Layer occupancy (ticks)
system.membus.reqLayer0.utilization               3.3                       # Layer utilization (%)
system.membus.respLayer1.occupancy         7832726500                       # Layer occupancy (ticks)
system.membus.respLayer1.utilization              2.9                       # Layer utilization (%)
system.tol2bus.trans_dist::ReadResp             47598                       # Transaction distribution
system.tol2bus.trans_dist::WritebackDirty      3016541                       # Transaction distribution
system.tol2bus.trans_dist::WritebackClean          708                       # Transaction distribution
system.tol2bus.trans_dist::CleanEvict           23970                       # Transaction distribution
system.tol2bus.trans_dist::ReadExReq          1522364                       # Transaction distribution
system.tol2bus.trans_dist::ReadExResp         1522364                       # Transaction distribution
system.tol2bus.trans_dist::ReadCleanReq           923                       # Transaction distribution
system.tol2bus.trans_dist::ReadSharedReq        46675                       # Transaction distribution
system.tol2bus.pkt_count_system.cpu.icache.mem_side_port::system.l2.cpu_side_port         2554                       # Packet count per connected requestor and responder (bytes)
system.tol2bus.pkt_count_system.cpu.dcache.mem_side_port::system.l2.cpu_side_port      4706861                       # Packet count per connected requestor and responder (bytes)
system.tol2bus.pkt_count::total               4709415                       # Packet count per connected requestor and responder (bytes)
system.tol2bus.pkt_size_system.cpu.icache.mem_side_port::system.l2.cpu_side_port       104384                       # Cumulative packet size per connected requestor and responder (bytes)
system.tol2bus.pkt_size_system.cpu.dcache.mem_side_port::system.l2.cpu_side_port    199324544                       # Cumulative packet size per connected requestor and responder (bytes)
system.tol2bus.pkt_size::total              199428928                       # Cumulative packet size per connected requestor and responder (bytes)
system.tol2bus.snoops                         1471728                       # Total snoops (count)
system.tol2bus.snoopTraffic                  94152576                       # Total snoop traffic (bytes)
system.tol2bus.snoop_fanout::samples          3041690                       # Request fanout histogram
system.tol2bus.snoop_fanout::mean            0.007728                       # Request fanout histogram
system.tol2bus.snoop_fanout::stdev           0.087567                       # Request fanout histogram
system.tol2bus.snoop_fanout::underflows             0      0.00%      0.00% # Request fanout histogram
system.tol2bus.snoop_fanout::0                3018185     99.23%     99.23% # Request fanout histogram
system.tol2bus.snoop_fanout::1                  23505      0.77%    100.00% # Request fanout histogram
system.tol2bus.snoop_fanout::2                      0      0.00%    100.00% # Request fanout histogram
system.tol2bus.snoop_fanout::overflows              0      0.00%    100.00% # Request fanout histogram
system.tol2bus.snoop_fanout::min_value              0                       # Request fanout histogram
system.tol2bus.snoop_fanout::max_value              1                       # Request fanout histogram
system.tol2bus.snoop_fanout::total            3041690                       # Request fanout histogram
system.tol2bus.power_state.pwrStateResidencyTicks::UNDEFINED 266883087000                       # Cumulative time (in ticks) in various power states
system.tol2bus.reqLayer0.occupancy         6231683000                       # Layer occupancy (ticks)
system.tol2bus.reqLayer0.utilization              2.3                       # Layer utilization (%)
system.tol2bus.respLayer0.occupancy           2769999                       # Layer occupancy (ticks)
system.tol2bus.respLayer0.utilization             0.0                       # Layer utilization (%)
system.tol2bus.respLayer1.occupancy        4707119997                       # Layer occupancy (ticks)
system.tol2bus.respLayer1.utilization             1.8                       # Layer utilization (%)
system.voltage_domain.voltage                       1                       # Voltage in Volts

---------- End Simulation Statistics   ----------
