
---------- Begin Simulation Statistics ----------
final_tick                               705785728000                       # Number of ticks from beginning of simulation (restored from checkpoints and never reset)
host_inst_rate                                  60751                       # Simulator instruction rate (inst/s)
host_mem_usage                                 663956                       # Number of bytes of host memory used
host_op_rate                                   111915                       # Simulator op (including micro ops) rate (op/s)
host_seconds                                  1646.06                       # Real time elapsed on the host
host_tick_rate                              428771511                       # Simulator tick rate (ticks/s)
sim_freq                                 1000000000000                       # Frequency of simulated ticks
sim_insts                                   100000001                       # Number of instructions simulated
sim_ops                                     184218784                       # Number of ops (including micro ops) simulated
sim_seconds                                  0.705786                       # Number of seconds simulated
sim_ticks                                705785728000                       # Number of ticks simulated
system.cpu.committedInsts                   100000001                       # Number of instructions committed
system.cpu.committedOps                     184218784                       # Number of ops (including micro ops) committed
system.cpu.cpi                               7.057857                       # CPI: cycles per instruction
system.cpu.discardedOps                          4374                       # Number of ops (including micro ops) which were discarded before commit
system.cpu.idleCycles                       484065407                       # Total number of cycles that the object has spent stopped
system.cpu.ipc                               0.141686                       # IPC: instructions per cycle
system.cpu.numCycles                        705785728                       # number of cpu cycles simulated
system.cpu.numFetchSuspends                         0                       # Number of times Execute suspended instruction fetching
system.cpu.numWorkItemsCompleted                    0                       # number of work items this cpu completed
system.cpu.numWorkItemsStarted                      0                       # number of work items this cpu started
system.cpu.op_class_0::No_OpClass                   0      0.00%      0.00% # Class of committed instruction
system.cpu.op_class_0::IntAlu                97640468     53.00%     53.00% # Class of committed instruction
system.cpu.op_class_0::IntMult                 114702      0.06%     53.06% # Class of committed instruction
system.cpu.op_class_0::IntDiv                       0      0.00%     53.06% # Class of committed instruction
system.cpu.op_class_0::FloatAdd                     0      0.00%     53.06% # Class of committed instruction
system.cpu.op_class_0::FloatCmp                     0      0.00%     53.06% # Class of committed instruction
system.cpu.op_class_0::FloatCvt                     0      0.00%     53.06% # Class of committed instruction
system.cpu.op_class_0::FloatMult                    0      0.00%     53.06% # Class of committed instruction
system.cpu.op_class_0::FloatMultAcc                 0      0.00%     53.06% # Class of committed instruction
system.cpu.op_class_0::FloatDiv                     0      0.00%     53.06% # Class of committed instruction
system.cpu.op_class_0::FloatMisc                    0      0.00%     53.06% # Class of committed instruction
system.cpu.op_class_0::FloatSqrt                    0      0.00%     53.06% # Class of committed instruction
system.cpu.op_class_0::SimdAdd                      8      0.00%     53.06% # Class of committed instruction
system.cpu.op_class_0::SimdAddAcc                   0      0.00%     53.06% # Class of committed instruction
system.cpu.op_class_0::SimdAlu                     10      0.00%     53.06% # Class of committed instruction
system.cpu.op_class_0::SimdCmp                      8      0.00%     53.06% # Class of committed instruction
system.cpu.op_class_0::SimdCvt                      0      0.00%     53.06% # Class of committed instruction
system.cpu.op_class_0::SimdMisc                     1      0.00%     53.06% # Class of committed instruction
system.cpu.op_class_0::SimdMult                     0      0.00%     53.06% # Class of committed instruction
system.cpu.op_class_0::SimdMultAcc                  0      0.00%     53.06% # Class of committed instruction
system.cpu.op_class_0::SimdShift                    0      0.00%     53.06% # Class of committed instruction
system.cpu.op_class_0::SimdShiftAcc                 0      0.00%     53.06% # Class of committed instruction
system.cpu.op_class_0::SimdDiv                      0      0.00%     53.06% # Class of committed instruction
system.cpu.op_class_0::SimdSqrt                     0      0.00%     53.06% # Class of committed instruction
system.cpu.op_class_0::SimdFloatAdd                 0      0.00%     53.06% # Class of committed instruction
system.cpu.op_class_0::SimdFloatAlu                 0      0.00%     53.06% # Class of committed instruction
system.cpu.op_class_0::SimdFloatCmp                 0      0.00%     53.06% # Class of committed instruction
system.cpu.op_class_0::SimdFloatCvt                 0      0.00%     53.06% # Class of committed instruction
system.cpu.op_class_0::SimdFloatDiv                 0      0.00%     53.06% # Class of committed instruction
system.cpu.op_class_0::SimdFloatMisc               24      0.00%     53.06% # Class of committed instruction
system.cpu.op_class_0::SimdFloatMult                0      0.00%     53.06% # Class of committed instruction
system.cpu.op_class_0::SimdFloatMultAcc             0      0.00%     53.06% # Class of committed instruction
system.cpu.op_class_0::SimdFloatSqrt                0      0.00%     53.06% # Class of committed instruction
system.cpu.op_class_0::SimdReduceAdd                0      0.00%     53.06% # Class of committed instruction
system.cpu.op_class_0::SimdReduceAlu                0      0.00%     53.06% # Class of committed instruction
system.cpu.op_class_0::SimdReduceCmp                0      0.00%     53.06% # Class of committed instruction
system.cpu.op_class_0::SimdFloatReduceAdd            0      0.00%     53.06% # Class of committed instruction
system.cpu.op_class_0::SimdFloatReduceCmp            0      0.00%     53.06% # Class of committed instruction
system.cpu.op_class_0::SimdAes                      0      0.00%     53.06% # Class of committed instruction
system.cpu.op_class_0::SimdAesMix                   0      0.00%     53.06% # Class of committed instruction
system.cpu.op_class_0::SimdSha1Hash                 0      0.00%     53.06% # Class of committed instruction
system.cpu.op_class_0::SimdSha1Hash2                0      0.00%     53.06% # Class of committed instruction
system.cpu.op_class_0::SimdSha256Hash               0      0.00%     53.06% # Class of committed instruction
system.cpu.op_class_0::SimdSha256Hash2              0      0.00%     53.06% # Class of committed instruction
system.cpu.op_class_0::SimdShaSigma2                0      0.00%     53.06% # Class of committed instruction
system.cpu.op_class_0::SimdShaSigma3                0      0.00%     53.06% # Class of committed instruction
system.cpu.op_class_0::SimdPredAlu                  0      0.00%     53.06% # Class of committed instruction
system.cpu.op_class_0::MemRead                2082677      1.13%     54.20% # Class of committed instruction
system.cpu.op_class_0::MemWrite              84380886     45.80%    100.00% # Class of committed instruction
system.cpu.op_class_0::FloatMemRead                 0      0.00%    100.00% # Class of committed instruction
system.cpu.op_class_0::FloatMemWrite                0      0.00%    100.00% # Class of committed instruction
system.cpu.op_class_0::IprAccess                    0      0.00%    100.00% # Class of committed instruction
system.cpu.op_class_0::InstPrefetch                 0      0.00%    100.00% # Class of committed instruction
system.cpu.op_class_0::total                184218784                       # Class of committed instruction
system.cpu.tickCycles                       221720321                       # Number of cycles that the object actually ticked
system.cpu.workload.numSyscalls                    19                       # Number of system calls
system.membus.snoop_filter.hit_multi_requests            0                       # Number of requests hitting in the snoop filter with multiple (>1) holders of the requested data.
system.membus.snoop_filter.hit_multi_snoops            0                       # Number of snoops hitting in the snoop filter with multiple (>1) holders of the requested data.
system.membus.snoop_filter.hit_single_requests      5230886                       # Number of requests hitting in the snoop filter with a single holder of the requested data.
system.membus.snoop_filter.hit_single_snoops            0                       # Number of snoops hitting in the snoop filter with a single holder of the requested data.
system.membus.snoop_filter.tot_requests      10494779                       # Total number of requests made to the snoop filter.
system.membus.snoop_filter.tot_snoops               0                       # Total number of snoops made to the snoop filter.
system.tol2bus.snoop_filter.hit_multi_requests         1378                       # Number of requests hitting in the snoop filter with multiple (>1) holders of the requested data.
system.tol2bus.snoop_filter.hit_multi_snoops            0                       # Number of snoops hitting in the snoop filter with multiple (>1) holders of the requested data.
system.tol2bus.snoop_filter.hit_single_requests      5282984                       # Number of requests hitting in the snoop filter with a single holder of the requested data.
system.tol2bus.snoop_filter.hit_single_snoops          363                       # Number of snoops hitting in the snoop filter with a single holder of the requested data.
system.tol2bus.snoop_filter.tot_requests     10566472                       # Total number of requests made to the snoop filter.
system.tol2bus.snoop_filter.tot_snoops            363                       # Total number of snoops made to the snoop filter.
system.clk_domain.clock                          1000                       # Clock period in ticks
system.cpu.branchPred.lookups                10658163                       # Number of BP lookups
system.cpu.branchPred.condPredicted          10649979                       # Number of conditional branches predicted
system.cpu.branchPred.condIncorrect              1451                       # Number of conditional branches incorrect
system.cpu.branchPred.BTBLookups             10650154                       # Number of BTB lookups
system.cpu.branchPred.BTBHits                10648832                       # Number of BTB hits
system.cpu.branchPred.BTBHitPct             99.987587                       # BTB Hit Percentage
system.cpu.branchPred.RASUsed                    2705                       # Number of times the RAS was used to get a target.
system.cpu.branchPred.RASIncorrect                  1                       # Number of incorrect RAS predictions.
system.cpu.branchPred.indirectLookups             191                       # Number of indirect predictor lookups.
system.cpu.branchPred.indirectHits                 19                       # Number of indirect target hits.
system.cpu.branchPred.indirectMisses              172                       # Number of indirect misses.
system.cpu.branchPred.indirectMispredicted          105                       # Number of mispredicted indirect branches.
system.cpu.dcache.demand_hits::.cpu.data     75841488                       # number of demand (read+write) hits
system.cpu.dcache.demand_hits::total         75841488                       # number of demand (read+write) hits
system.cpu.dcache.overall_hits::.cpu.data     75841524                       # number of overall hits
system.cpu.dcache.overall_hits::total        75841524                       # number of overall hits
system.cpu.dcache.demand_misses::.cpu.data     10539099                       # number of demand (read+write) misses
system.cpu.dcache.demand_misses::total       10539099                       # number of demand (read+write) misses
system.cpu.dcache.overall_misses::.cpu.data     10539134                       # number of overall misses
system.cpu.dcache.overall_misses::total      10539134                       # number of overall misses
system.cpu.dcache.demand_miss_latency::.cpu.data 1109543921999                       # number of demand (read+write) miss cycles
system.cpu.dcache.demand_miss_latency::total 1109543921999                       # number of demand (read+write) miss cycles
system.cpu.dcache.overall_miss_latency::.cpu.data 1109543921999                       # number of overall miss cycles
system.cpu.dcache.overall_miss_latency::total 1109543921999                       # number of overall miss cycles
system.cpu.dcache.demand_accesses::.cpu.data     86380587                       # number of demand (read+write) accesses
system.cpu.dcache.demand_accesses::total     86380587                       # number of demand (read+write) accesses
system.cpu.dcache.overall_accesses::.cpu.data     86380658                       # number of overall (read+write) accesses
system.cpu.dcache.overall_accesses::total     86380658                       # number of overall (read+write) accesses
system.cpu.dcache.demand_miss_rate::.cpu.data     0.122008                       # miss rate for demand accesses
system.cpu.dcache.demand_miss_rate::total     0.122008                       # miss rate for demand accesses
system.cpu.dcache.overall_miss_rate::.cpu.data     0.122008                       # miss rate for overall accesses
system.cpu.dcache.overall_miss_rate::total     0.122008                       # miss rate for overall accesses
system.cpu.dcache.demand_avg_miss_latency::.cpu.data 105278.821463                       # average overall miss latency
system.cpu.dcache.demand_avg_miss_latency::total 105278.821463                       # average overall miss latency
system.cpu.dcache.overall_avg_miss_latency::.cpu.data 105278.471836                       # average overall miss latency
system.cpu.dcache.overall_avg_miss_latency::total 105278.471836                       # average overall miss latency
system.cpu.dcache.blocked_cycles::no_mshrs          126                       # number of cycles access was blocked
system.cpu.dcache.blocked_cycles::no_targets            0                       # number of cycles access was blocked
system.cpu.dcache.blocked::no_mshrs                 2                       # number of cycles access was blocked
system.cpu.dcache.blocked::no_targets               0                       # number of cycles access was blocked
system.cpu.dcache.avg_blocked_cycles::no_mshrs           63                       # average number of cycles each access was blocked
system.cpu.dcache.avg_blocked_cycles::no_targets          nan                       # average number of cycles each access was blocked
system.cpu.dcache.writebacks::.writebacks      5271715                       # number of writebacks
system.cpu.dcache.writebacks::total           5271715                       # number of writebacks
system.cpu.dcache.demand_mshr_hits::.cpu.data      5260432                       # number of demand (read+write) MSHR hits
system.cpu.dcache.demand_mshr_hits::total      5260432                       # number of demand (read+write) MSHR hits
system.cpu.dcache.overall_mshr_hits::.cpu.data      5260432                       # number of overall MSHR hits
system.cpu.dcache.overall_mshr_hits::total      5260432                       # number of overall MSHR hits
system.cpu.dcache.demand_mshr_misses::.cpu.data      5278667                       # number of demand (read+write) MSHR misses
system.cpu.dcache.demand_mshr_misses::total      5278667                       # number of demand (read+write) MSHR misses
system.cpu.dcache.overall_mshr_misses::.cpu.data      5278699                       # number of overall MSHR misses
system.cpu.dcache.overall_mshr_misses::total      5278699                       # number of overall MSHR misses
system.cpu.dcache.demand_mshr_miss_latency::.cpu.data 541970305000                       # number of demand (read+write) MSHR miss cycles
system.cpu.dcache.demand_mshr_miss_latency::total 541970305000                       # number of demand (read+write) MSHR miss cycles
system.cpu.dcache.overall_mshr_miss_latency::.cpu.data 541973431000                       # number of overall MSHR miss cycles
system.cpu.dcache.overall_mshr_miss_latency::total 541973431000                       # number of overall MSHR miss cycles
system.cpu.dcache.demand_mshr_miss_rate::.cpu.data     0.061109                       # mshr miss rate for demand accesses
system.cpu.dcache.demand_mshr_miss_rate::total     0.061109                       # mshr miss rate for demand accesses
system.cpu.dcache.overall_mshr_miss_rate::.cpu.data     0.061110                       # mshr miss rate for overall accesses
system.cpu.dcache.overall_mshr_miss_rate::total     0.061110                       # mshr miss rate for overall accesses
system.cpu.dcache.demand_avg_mshr_miss_latency::.cpu.data 102671.811842                       # average overall mshr miss latency
system.cpu.dcache.demand_avg_mshr_miss_latency::total 102671.811842                       # average overall mshr miss latency
system.cpu.dcache.overall_avg_mshr_miss_latency::.cpu.data 102671.781626                       # average overall mshr miss latency
system.cpu.dcache.overall_avg_mshr_miss_latency::total 102671.781626                       # average overall mshr miss latency
system.cpu.dcache.replacements                5278443                       # number of replacements
system.cpu.dcache.ReadReq_hits::.cpu.data      2035703                       # number of ReadReq hits
system.cpu.dcache.ReadReq_hits::total         2035703                       # number of ReadReq hits
system.cpu.dcache.ReadReq_misses::.cpu.data         8292                       # number of ReadReq misses
system.cpu.dcache.ReadReq_misses::total          8292                       # number of ReadReq misses
system.cpu.dcache.ReadReq_miss_latency::.cpu.data    269622000                       # number of ReadReq miss cycles
system.cpu.dcache.ReadReq_miss_latency::total    269622000                       # number of ReadReq miss cycles
system.cpu.dcache.ReadReq_accesses::.cpu.data      2043995                       # number of ReadReq accesses(hits+misses)
system.cpu.dcache.ReadReq_accesses::total      2043995                       # number of ReadReq accesses(hits+misses)
system.cpu.dcache.ReadReq_miss_rate::.cpu.data     0.004057                       # miss rate for ReadReq accesses
system.cpu.dcache.ReadReq_miss_rate::total     0.004057                       # miss rate for ReadReq accesses
system.cpu.dcache.ReadReq_avg_miss_latency::.cpu.data 32515.918958                       # average ReadReq miss latency
system.cpu.dcache.ReadReq_avg_miss_latency::total 32515.918958                       # average ReadReq miss latency
system.cpu.dcache.ReadReq_mshr_hits::.cpu.data           42                       # number of ReadReq MSHR hits
system.cpu.dcache.ReadReq_mshr_hits::total           42                       # number of ReadReq MSHR hits
system.cpu.dcache.ReadReq_mshr_misses::.cpu.data         8250                       # number of ReadReq MSHR misses
system.cpu.dcache.ReadReq_mshr_misses::total         8250                       # number of ReadReq MSHR misses
system.cpu.dcache.ReadReq_mshr_miss_latency::.cpu.data    250168000                       # number of ReadReq MSHR miss cycles
system.cpu.dcache.ReadReq_mshr_miss_latency::total    250168000                       # number of ReadReq MSHR miss cycles
system.cpu.dcache.ReadReq_mshr_miss_rate::.cpu.data     0.004036                       # mshr miss rate for ReadReq accesses
system.cpu.dcache.ReadReq_mshr_miss_rate::total     0.004036                       # mshr miss rate for ReadReq accesses
system.cpu.dcache.ReadReq_avg_mshr_miss_latency::.cpu.data 30323.393939                       # average ReadReq mshr miss latency
system.cpu.dcache.ReadReq_avg_mshr_miss_latency::total 30323.393939                       # average ReadReq mshr miss latency
system.cpu.dcache.WriteReq_hits::.cpu.data     73805785                       # number of WriteReq hits
system.cpu.dcache.WriteReq_hits::total       73805785                       # number of WriteReq hits
system.cpu.dcache.WriteReq_misses::.cpu.data     10530807                       # number of WriteReq misses
system.cpu.dcache.WriteReq_misses::total     10530807                       # number of WriteReq misses
system.cpu.dcache.WriteReq_miss_latency::.cpu.data 1109274299999                       # number of WriteReq miss cycles
system.cpu.dcache.WriteReq_miss_latency::total 1109274299999                       # number of WriteReq miss cycles
system.cpu.dcache.WriteReq_accesses::.cpu.data     84336592                       # number of WriteReq accesses(hits+misses)
system.cpu.dcache.WriteReq_accesses::total     84336592                       # number of WriteReq accesses(hits+misses)
system.cpu.dcache.WriteReq_miss_rate::.cpu.data     0.124866                       # miss rate for WriteReq accesses
system.cpu.dcache.WriteReq_miss_rate::total     0.124866                       # miss rate for WriteReq accesses
system.cpu.dcache.WriteReq_avg_miss_latency::.cpu.data 105336.115266                       # average WriteReq miss latency
system.cpu.dcache.WriteReq_avg_miss_latency::total 105336.115266                       # average WriteReq miss latency
system.cpu.dcache.WriteReq_mshr_hits::.cpu.data      5260390                       # number of WriteReq MSHR hits
system.cpu.dcache.WriteReq_mshr_hits::total      5260390                       # number of WriteReq MSHR hits
system.cpu.dcache.WriteReq_mshr_misses::.cpu.data      5270417                       # number of WriteReq MSHR misses
system.cpu.dcache.WriteReq_mshr_misses::total      5270417                       # number of WriteReq MSHR misses
system.cpu.dcache.WriteReq_mshr_miss_latency::.cpu.data 541720137000                       # number of WriteReq MSHR miss cycles
system.cpu.dcache.WriteReq_mshr_miss_latency::total 541720137000                       # number of WriteReq MSHR miss cycles
system.cpu.dcache.WriteReq_mshr_miss_rate::.cpu.data     0.062493                       # mshr miss rate for WriteReq accesses
system.cpu.dcache.WriteReq_mshr_miss_rate::total     0.062493                       # mshr miss rate for WriteReq accesses
system.cpu.dcache.WriteReq_avg_mshr_miss_latency::.cpu.data 102785.061789                       # average WriteReq mshr miss latency
system.cpu.dcache.WriteReq_avg_mshr_miss_latency::total 102785.061789                       # average WriteReq mshr miss latency
system.cpu.dcache.SoftPFReq_hits::.cpu.data           36                       # number of SoftPFReq hits
system.cpu.dcache.SoftPFReq_hits::total            36                       # number of SoftPFReq hits
system.cpu.dcache.SoftPFReq_misses::.cpu.data           35                       # number of SoftPFReq misses
system.cpu.dcache.SoftPFReq_misses::total           35                       # number of SoftPFReq misses
system.cpu.dcache.SoftPFReq_accesses::.cpu.data           71                       # number of SoftPFReq accesses(hits+misses)
system.cpu.dcache.SoftPFReq_accesses::total           71                       # number of SoftPFReq accesses(hits+misses)
system.cpu.dcache.SoftPFReq_miss_rate::.cpu.data     0.492958                       # miss rate for SoftPFReq accesses
system.cpu.dcache.SoftPFReq_miss_rate::total     0.492958                       # miss rate for SoftPFReq accesses
system.cpu.dcache.SoftPFReq_mshr_misses::.cpu.data           32                       # number of SoftPFReq MSHR misses
system.cpu.dcache.SoftPFReq_mshr_misses::total           32                       # number of SoftPFReq MSHR misses
system.cpu.dcache.SoftPFReq_mshr_miss_latency::.cpu.data      3126000                       # number of SoftPFReq MSHR miss cycles
system.cpu.dcache.SoftPFReq_mshr_miss_latency::total      3126000                       # number of SoftPFReq MSHR miss cycles
system.cpu.dcache.SoftPFReq_mshr_miss_rate::.cpu.data     0.450704                       # mshr miss rate for SoftPFReq accesses
system.cpu.dcache.SoftPFReq_mshr_miss_rate::total     0.450704                       # mshr miss rate for SoftPFReq accesses
system.cpu.dcache.SoftPFReq_avg_mshr_miss_latency::.cpu.data 97687.500000                       # average SoftPFReq mshr miss latency
system.cpu.dcache.SoftPFReq_avg_mshr_miss_latency::total 97687.500000                       # average SoftPFReq mshr miss latency
system.cpu.dcache.LoadLockedReq_hits::.cpu.data           34                       # number of LoadLockedReq hits
system.cpu.dcache.LoadLockedReq_hits::total           34                       # number of LoadLockedReq hits
system.cpu.dcache.LoadLockedReq_accesses::.cpu.data           34                       # number of LoadLockedReq accesses(hits+misses)
system.cpu.dcache.LoadLockedReq_accesses::total           34                       # number of LoadLockedReq accesses(hits+misses)
system.cpu.dcache.StoreCondReq_hits::.cpu.data           34                       # number of StoreCondReq hits
system.cpu.dcache.StoreCondReq_hits::total           34                       # number of StoreCondReq hits
system.cpu.dcache.StoreCondReq_accesses::.cpu.data           34                       # number of StoreCondReq accesses(hits+misses)
system.cpu.dcache.StoreCondReq_accesses::total           34                       # number of StoreCondReq accesses(hits+misses)
system.cpu.dcache.power_state.pwrStateResidencyTicks::UNDEFINED 705785728000                       # Cumulative time (in ticks) in various power states
system.cpu.dcache.tags.tagsinuse           255.975060                       # Cycle average of tags in use
system.cpu.dcache.tags.total_refs            81120291                       # Total number of references to valid blocks.
system.cpu.dcache.tags.sampled_refs           5278699                       # Sample count of references to valid blocks.
system.cpu.dcache.tags.avg_refs             15.367478                       # Average number of references to valid blocks.
system.cpu.dcache.tags.warmup_cycle            223000                       # Cycle when the warmup percentage was hit.
system.cpu.dcache.tags.occ_blocks::.cpu.data   255.975060                       # Average occupied blocks per requestor
system.cpu.dcache.tags.occ_percent::.cpu.data     0.999903                       # Average percentage of cache occupancy
system.cpu.dcache.tags.occ_percent::total     0.999903                       # Average percentage of cache occupancy
system.cpu.dcache.tags.occ_task_id_blocks::1024          256                       # Occupied blocks per task id
system.cpu.dcache.tags.age_task_id_blocks_1024::0           75                       # Occupied blocks per task id
system.cpu.dcache.tags.age_task_id_blocks_1024::1          181                       # Occupied blocks per task id
system.cpu.dcache.tags.occ_task_id_percent::1024            1                       # Percentage of cache occupancy per task id
system.cpu.dcache.tags.tag_accesses          91659425                       # Number of tag accesses
system.cpu.dcache.tags.data_accesses         91659425                       # Number of data accesses
system.cpu.dcache.tags.power_state.pwrStateResidencyTicks::UNDEFINED 705785728000                       # Cumulative time (in ticks) in various power states
system.cpu.dtb.instHits                             0                       # ITB inst hits
system.cpu.dtb.instMisses                           0                       # ITB inst misses
system.cpu.dtb.readHits                             0                       # DTB read hits
system.cpu.dtb.readMisses                           0                       # DTB read misses
system.cpu.dtb.writeHits                            0                       # DTB write hits
system.cpu.dtb.writeMisses                          0                       # DTB write misses
system.cpu.dtb.inserts                              0                       # Number of times an entry is inserted into the TLB
system.cpu.dtb.flushTlb                             0                       # Number of times complete TLB was flushed
system.cpu.dtb.flushTlbMva                          0                       # Number of times TLB was flushed by MVA
system.cpu.dtb.flushTlbMvaAsid                      0                       # Number of times TLB was flushed by MVA & ASID
system.cpu.dtb.flushTlbAsid                         0                       # Number of times TLB was flushed by ASID
system.cpu.dtb.flushedEntries                       0                       # Number of entries that have been flushed from TLB
system.cpu.dtb.alignFaults                          0                       # Number of TLB faults due to alignment restrictions
system.cpu.dtb.prefetchFaults                       0                       # Number of TLB faults due to prefetch
system.cpu.dtb.domainFaults                         0                       # Number of TLB faults due to domain restrictions
system.cpu.dtb.permsFaults                          0                       # Number of TLB faults due to permissions restrictions
system.cpu.dtb.readAccesses                         0                       # DTB read accesses
system.cpu.dtb.writeAccesses                        0                       # DTB write accesses
system.cpu.dtb.instAccesses                         0                       # ITB inst accesses
system.cpu.dtb.hits                                 0                       # Total TLB (inst and data) hits
system.cpu.dtb.misses                               0                       # Total TLB (inst and data) misses
system.cpu.dtb.accesses                             0                       # Total TLB (inst and data) accesses
system.cpu.dtb.stage2_mmu.stage2_tlb.instHits            0                       # ITB inst hits
system.cpu.dtb.stage2_mmu.stage2_tlb.instMisses            0                       # ITB inst misses
system.cpu.dtb.stage2_mmu.stage2_tlb.readHits            0                       # DTB read hits
system.cpu.dtb.stage2_mmu.stage2_tlb.readMisses            0                       # DTB read misses
system.cpu.dtb.stage2_mmu.stage2_tlb.writeHits            0                       # DTB write hits
system.cpu.dtb.stage2_mmu.stage2_tlb.writeMisses            0                       # DTB write misses
system.cpu.dtb.stage2_mmu.stage2_tlb.inserts            0                       # Number of times an entry is inserted into the TLB
system.cpu.dtb.stage2_mmu.stage2_tlb.flushTlb            0                       # Number of times complete TLB was flushed
system.cpu.dtb.stage2_mmu.stage2_tlb.flushTlbMva            0                       # Number of times TLB was flushed by MVA
system.cpu.dtb.stage2_mmu.stage2_tlb.flushTlbMvaAsid            0                       # Number of times TLB was flushed by MVA & ASID
system.cpu.dtb.stage2_mmu.stage2_tlb.flushTlbAsid            0                       # Number of times TLB was flushed by ASID
system.cpu.dtb.stage2_mmu.stage2_tlb.flushedEntries            0                       # Number of entries that have been flushed from TLB
system.cpu.dtb.stage2_mmu.stage2_tlb.alignFaults            0                       # Number of TLB faults due to alignment restrictions
system.cpu.dtb.stage2_mmu.stage2_tlb.prefetchFaults            0                       # Number of TLB faults due to prefetch
system.cpu.dtb.stage2_mmu.stage2_tlb.domainFaults            0                       # Number of TLB faults due to domain restrictions
system.cpu.dtb.stage2_mmu.stage2_tlb.permsFaults            0                       # Number of TLB faults due to permissions restrictions
system.cpu.dtb.stage2_mmu.stage2_tlb.readAccesses            0                       # DTB read accesses
system.cpu.dtb.stage2_mmu.stage2_tlb.writeAccesses            0                       # DTB write accesses
system.cpu.dtb.stage2_mmu.stage2_tlb.instAccesses            0                       # ITB inst accesses
system.cpu.dtb.stage2_mmu.stage2_tlb.hits            0                       # Total TLB (inst and data) hits
system.cpu.dtb.stage2_mmu.stage2_tlb.misses            0                       # Total TLB (inst and data) misses
system.cpu.dtb.stage2_mmu.stage2_tlb.accesses            0                       # Total TLB (inst and data) accesses
system.cpu.dtb.stage2_mmu.stage2_tlb.walker.walks            0                       # Table walker walks requested
system.cpu.dtb.stage2_mmu.stage2_tlb.walker.requestOrigin_Requested::Data            0                       # Table walker requests started/completed, data/inst
system.cpu.dtb.stage2_mmu.stage2_tlb.walker.requestOrigin_Requested::Inst            0                       # Table walker requests started/completed, data/inst
system.cpu.dtb.stage2_mmu.stage2_tlb.walker.requestOrigin_Requested::total            0                       # Table walker requests started/completed, data/inst
system.cpu.dtb.stage2_mmu.stage2_tlb.walker.requestOrigin_Completed::Data            0                       # Table walker requests started/completed, data/inst
system.cpu.dtb.stage2_mmu.stage2_tlb.walker.requestOrigin_Completed::Inst            0                       # Table walker requests started/completed, data/inst
system.cpu.dtb.stage2_mmu.stage2_tlb.walker.requestOrigin_Completed::total            0                       # Table walker requests started/completed, data/inst
system.cpu.dtb.stage2_mmu.stage2_tlb.walker.requestOrigin::total            0                       # Table walker requests started/completed, data/inst
system.cpu.dtb.stage2_mmu.stage2_tlb.walker.power_state.pwrStateResidencyTicks::UNDEFINED 705785728000                       # Cumulative time (in ticks) in various power states
system.cpu.dtb.walker.walks                         0                       # Table walker walks requested
system.cpu.dtb.walker.requestOrigin_Requested::Data            0                       # Table walker requests started/completed, data/inst
system.cpu.dtb.walker.requestOrigin_Requested::Inst            0                       # Table walker requests started/completed, data/inst
system.cpu.dtb.walker.requestOrigin_Requested::total            0                       # Table walker requests started/completed, data/inst
system.cpu.dtb.walker.requestOrigin_Completed::Data            0                       # Table walker requests started/completed, data/inst
system.cpu.dtb.walker.requestOrigin_Completed::Inst            0                       # Table walker requests started/completed, data/inst
system.cpu.dtb.walker.requestOrigin_Completed::total            0                       # Table walker requests started/completed, data/inst
system.cpu.dtb.walker.requestOrigin::total            0                       # Table walker requests started/completed, data/inst
system.cpu.dtb.walker.power_state.pwrStateResidencyTicks::UNDEFINED 705785728000                       # Cumulative time (in ticks) in various power states
system.cpu.fetch2.intInstructions            45070827                       # Number of integer instructions successfully decoded
system.cpu.fetch2.fpInstructions                    0                       # Number of floating point instructions successfully decoded
system.cpu.fetch2.vecInstructions                   0                       # Number of SIMD instructions successfully decoded
system.cpu.fetch2.loadInstructions            2086330                       # Number of memory load instructions successfully decoded
system.cpu.fetch2.storeInstructions            169077                       # Number of memory store instructions successfully decoded
system.cpu.fetch2.amoInstructions                   0                       # Number of memory atomic instructions successfully decoded
system.cpu.icache.demand_hits::.cpu.inst     32140549                       # number of demand (read+write) hits
system.cpu.icache.demand_hits::total         32140549                       # number of demand (read+write) hits
system.cpu.icache.overall_hits::.cpu.inst     32140549                       # number of overall hits
system.cpu.icache.overall_hits::total        32140549                       # number of overall hits
system.cpu.icache.demand_misses::.cpu.inst         4789                       # number of demand (read+write) misses
system.cpu.icache.demand_misses::total           4789                       # number of demand (read+write) misses
system.cpu.icache.overall_misses::.cpu.inst         4789                       # number of overall misses
system.cpu.icache.overall_misses::total          4789                       # number of overall misses
system.cpu.icache.demand_miss_latency::.cpu.inst    245015000                       # number of demand (read+write) miss cycles
system.cpu.icache.demand_miss_latency::total    245015000                       # number of demand (read+write) miss cycles
system.cpu.icache.overall_miss_latency::.cpu.inst    245015000                       # number of overall miss cycles
system.cpu.icache.overall_miss_latency::total    245015000                       # number of overall miss cycles
system.cpu.icache.demand_accesses::.cpu.inst     32145338                       # number of demand (read+write) accesses
system.cpu.icache.demand_accesses::total     32145338                       # number of demand (read+write) accesses
system.cpu.icache.overall_accesses::.cpu.inst     32145338                       # number of overall (read+write) accesses
system.cpu.icache.overall_accesses::total     32145338                       # number of overall (read+write) accesses
system.cpu.icache.demand_miss_rate::.cpu.inst     0.000149                       # miss rate for demand accesses
system.cpu.icache.demand_miss_rate::total     0.000149                       # miss rate for demand accesses
system.cpu.icache.overall_miss_rate::.cpu.inst     0.000149                       # miss rate for overall accesses
system.cpu.icache.overall_miss_rate::total     0.000149                       # miss rate for overall accesses
system.cpu.icache.demand_avg_miss_latency::.cpu.inst 51162.038004                       # average overall miss latency
system.cpu.icache.demand_avg_miss_latency::total 51162.038004                       # average overall miss latency
system.cpu.icache.overall_avg_miss_latency::.cpu.inst 51162.038004                       # average overall miss latency
system.cpu.icache.overall_avg_miss_latency::total 51162.038004                       # average overall miss latency
system.cpu.icache.blocked_cycles::no_mshrs            0                       # number of cycles access was blocked
system.cpu.icache.blocked_cycles::no_targets            0                       # number of cycles access was blocked
system.cpu.icache.blocked::no_mshrs                 0                       # number of cycles access was blocked
system.cpu.icache.blocked::no_targets               0                       # number of cycles access was blocked
system.cpu.icache.avg_blocked_cycles::no_mshrs          nan                       # average number of cycles each access was blocked
system.cpu.icache.avg_blocked_cycles::no_targets          nan                       # average number of cycles each access was blocked
system.cpu.icache.writebacks::.writebacks         4541                       # number of writebacks
system.cpu.icache.writebacks::total              4541                       # number of writebacks
system.cpu.icache.demand_mshr_misses::.cpu.inst         4789                       # number of demand (read+write) MSHR misses
system.cpu.icache.demand_mshr_misses::total         4789                       # number of demand (read+write) MSHR misses
system.cpu.icache.overall_mshr_misses::.cpu.inst         4789                       # number of overall MSHR misses
system.cpu.icache.overall_mshr_misses::total         4789                       # number of overall MSHR misses
system.cpu.icache.demand_mshr_miss_latency::.cpu.inst    235437000                       # number of demand (read+write) MSHR miss cycles
system.cpu.icache.demand_mshr_miss_latency::total    235437000                       # number of demand (read+write) MSHR miss cycles
system.cpu.icache.overall_mshr_miss_latency::.cpu.inst    235437000                       # number of overall MSHR miss cycles
system.cpu.icache.overall_mshr_miss_latency::total    235437000                       # number of overall MSHR miss cycles
system.cpu.icache.demand_mshr_miss_rate::.cpu.inst     0.000149                       # mshr miss rate for demand accesses
system.cpu.icache.demand_mshr_miss_rate::total     0.000149                       # mshr miss rate for demand accesses
system.cpu.icache.overall_mshr_miss_rate::.cpu.inst     0.000149                       # mshr miss rate for overall accesses
system.cpu.icache.overall_mshr_miss_rate::total     0.000149                       # mshr miss rate for overall accesses
system.cpu.icache.demand_avg_mshr_miss_latency::.cpu.inst 49162.038004                       # average overall mshr miss latency
system.cpu.icache.demand_avg_mshr_miss_latency::total 49162.038004                       # average overall mshr miss latency
system.cpu.icache.overall_avg_mshr_miss_latency::.cpu.inst 49162.038004                       # average overall mshr miss latency
system.cpu.icache.overall_avg_mshr_miss_latency::total 49162.038004                       # average overall mshr miss latency
system.cpu.icache.replacements                   4541                       # number of replacements
system.cpu.icache.ReadReq_hits::.cpu.inst     32140549                       # number of ReadReq hits
system.cpu.icache.ReadReq_hits::total        32140549                       # number of ReadReq hits
system.cpu.icache.ReadReq_misses::.cpu.inst         4789                       # number of ReadReq misses
system.cpu.icache.ReadReq_misses::total          4789                       # number of ReadReq misses
system.cpu.icache.ReadReq_miss_latency::.cpu.inst    245015000                       # number of ReadReq miss cycles
system.cpu.icache.ReadReq_miss_latency::total    245015000                       # number of ReadReq miss cycles
system.cpu.icache.ReadReq_accesses::.cpu.inst     32145338                       # number of ReadReq accesses(hits+misses)
system.cpu.icache.ReadReq_accesses::total     32145338                       # number of ReadReq accesses(hits+misses)
system.cpu.icache.ReadReq_miss_rate::.cpu.inst     0.000149                       # miss rate for ReadReq accesses
system.cpu.icache.ReadReq_miss_rate::total     0.000149                       # miss rate for ReadReq accesses
system.cpu.icache.ReadReq_avg_miss_latency::.cpu.inst 51162.038004                       # average ReadReq miss latency
system.cpu.icache.ReadReq_avg_miss_latency::total 51162.038004                       # average ReadReq miss latency
system.cpu.icache.ReadReq_mshr_misses::.cpu.inst         4789                       # number of ReadReq MSHR misses
system.cpu.icache.ReadReq_mshr_misses::total         4789                       # number of ReadReq MSHR misses
system.cpu.icache.ReadReq_mshr_miss_latency::.cpu.inst    235437000                       # number of ReadReq MSHR miss cycles
system.cpu.icache.ReadReq_mshr_miss_latency::total    235437000                       # number of ReadReq MSHR miss cycles
system.cpu.icache.ReadReq_mshr_miss_rate::.cpu.inst     0.000149                       # mshr miss rate for ReadReq accesses
system.cpu.icache.ReadReq_mshr_miss_rate::total     0.000149                       # mshr miss rate for ReadReq accesses
system.cpu.icache.ReadReq_avg_mshr_miss_latency::.cpu.inst 49162.038004                       # average ReadReq mshr miss latency
system.cpu.icache.ReadReq_avg_mshr_miss_latency::total 49162.038004                       # average ReadReq mshr miss latency
system.cpu.icache.power_state.pwrStateResidencyTicks::UNDEFINED 705785728000                       # Cumulative time (in ticks) in various power states
system.cpu.icache.tags.tagsinuse           229.069104                       # Cycle average of tags in use
system.cpu.icache.tags.total_refs            32145338                       # Total number of references to valid blocks.
system.cpu.icache.tags.sampled_refs              4789                       # Sample count of references to valid blocks.
system.cpu.icache.tags.avg_refs           6712.327835                       # Average number of references to valid blocks.
system.cpu.icache.tags.warmup_cycle            108000                       # Cycle when the warmup percentage was hit.
system.cpu.icache.tags.occ_blocks::.cpu.inst   229.069104                       # Average occupied blocks per requestor
system.cpu.icache.tags.occ_percent::.cpu.inst     0.894801                       # Average percentage of cache occupancy
system.cpu.icache.tags.occ_percent::total     0.894801                       # Average percentage of cache occupancy
system.cpu.icache.tags.occ_task_id_blocks::1024          248                       # Occupied blocks per task id
system.cpu.icache.tags.age_task_id_blocks_1024::4          248                       # Occupied blocks per task id
system.cpu.icache.tags.occ_task_id_percent::1024     0.968750                       # Percentage of cache occupancy per task id
system.cpu.icache.tags.tag_accesses          32150127                       # Number of tag accesses
system.cpu.icache.tags.data_accesses         32150127                       # Number of data accesses
system.cpu.icache.tags.power_state.pwrStateResidencyTicks::UNDEFINED 705785728000                       # Cumulative time (in ticks) in various power states
system.cpu.itb.instHits                             0                       # ITB inst hits
system.cpu.itb.instMisses                           0                       # ITB inst misses
system.cpu.itb.readHits                             0                       # DTB read hits
system.cpu.itb.readMisses                           0                       # DTB read misses
system.cpu.itb.writeHits                            0                       # DTB write hits
system.cpu.itb.writeMisses                          0                       # DTB write misses
system.cpu.itb.inserts                              0                       # Number of times an entry is inserted into the TLB
system.cpu.itb.flushTlb                             0                       # Number of times complete TLB was flushed
system.cpu.itb.flushTlbMva                          0                       # Number of times TLB was flushed by MVA
system.cpu.itb.flushTlbMvaAsid                      0                       # Number of times TLB was flushed by MVA & ASID
system.cpu.itb.flushTlbAsid                         0                       # Number of times TLB was flushed by ASID
system.cpu.itb.flushedEntries                       0                       # Number of entries that have been flushed from TLB
system.cpu.itb.alignFaults                          0                       # Number of TLB faults due to alignment restrictions
system.cpu.itb.prefetchFaults                       0                       # Number of TLB faults due to prefetch
system.cpu.itb.domainFaults                         0                       # Number of TLB faults due to domain restrictions
system.cpu.itb.permsFaults                          0                       # Number of TLB faults due to permissions restrictions
system.cpu.itb.readAccesses                         0                       # DTB read accesses
system.cpu.itb.writeAccesses                        0                       # DTB write accesses
system.cpu.itb.instAccesses                         0                       # ITB inst accesses
system.cpu.itb.hits                                 0                       # Total TLB (inst and data) hits
system.cpu.itb.misses                               0                       # Total TLB (inst and data) misses
system.cpu.itb.accesses                             0                       # Total TLB (inst and data) accesses
system.cpu.itb.stage2_mmu.stage2_tlb.instHits            0                       # ITB inst hits
system.cpu.itb.stage2_mmu.stage2_tlb.instMisses            0                       # ITB inst misses
system.cpu.itb.stage2_mmu.stage2_tlb.readHits            0                       # DTB read hits
system.cpu.itb.stage2_mmu.stage2_tlb.readMisses            0                       # DTB read misses
system.cpu.itb.stage2_mmu.stage2_tlb.writeHits            0                       # DTB write hits
system.cpu.itb.stage2_mmu.stage2_tlb.writeMisses            0                       # DTB write misses
system.cpu.itb.stage2_mmu.stage2_tlb.inserts            0                       # Number of times an entry is inserted into the TLB
system.cpu.itb.stage2_mmu.stage2_tlb.flushTlb            0                       # Number of times complete TLB was flushed
system.cpu.itb.stage2_mmu.stage2_tlb.flushTlbMva            0                       # Number of times TLB was flushed by MVA
system.cpu.itb.stage2_mmu.stage2_tlb.flushTlbMvaAsid            0                       # Number of times TLB was flushed by MVA & ASID
system.cpu.itb.stage2_mmu.stage2_tlb.flushTlbAsid            0                       # Number of times TLB was flushed by ASID
system.cpu.itb.stage2_mmu.stage2_tlb.flushedEntries            0                       # Number of entries that have been flushed from TLB
system.cpu.itb.stage2_mmu.stage2_tlb.alignFaults            0                       # Number of TLB faults due to alignment restrictions
system.cpu.itb.stage2_mmu.stage2_tlb.prefetchFaults            0                       # Number of TLB faults due to prefetch
system.cpu.itb.stage2_mmu.stage2_tlb.domainFaults            0                       # Number of TLB faults due to domain restrictions
system.cpu.itb.stage2_mmu.stage2_tlb.permsFaults            0                       # Number of TLB faults due to permissions restrictions
system.cpu.itb.stage2_mmu.stage2_tlb.readAccesses            0                       # DTB read accesses
system.cpu.itb.stage2_mmu.stage2_tlb.writeAccesses            0                       # DTB write accesses
system.cpu.itb.stage2_mmu.stage2_tlb.instAccesses            0                       # ITB inst accesses
system.cpu.itb.stage2_mmu.stage2_tlb.hits            0                       # Total TLB (inst and data) hits
system.cpu.itb.stage2_mmu.stage2_tlb.misses            0                       # Total TLB (inst and data) misses
system.cpu.itb.stage2_mmu.stage2_tlb.accesses            0                       # Total TLB (inst and data) accesses
system.cpu.itb.stage2_mmu.stage2_tlb.walker.walks            0                       # Table walker walks requested
system.cpu.itb.stage2_mmu.stage2_tlb.walker.requestOrigin_Requested::Data            0                       # Table walker requests started/completed, data/inst
system.cpu.itb.stage2_mmu.stage2_tlb.walker.requestOrigin_Requested::Inst            0                       # Table walker requests started/completed, data/inst
system.cpu.itb.stage2_mmu.stage2_tlb.walker.requestOrigin_Requested::total            0                       # Table walker requests started/completed, data/inst
system.cpu.itb.stage2_mmu.stage2_tlb.walker.requestOrigin_Completed::Data            0                       # Table walker requests started/completed, data/inst
system.cpu.itb.stage2_mmu.stage2_tlb.walker.requestOrigin_Completed::Inst            0                       # Table walker requests started/completed, data/inst
system.cpu.itb.stage2_mmu.stage2_tlb.walker.requestOrigin_Completed::total            0                       # Table walker requests started/completed, data/inst
system.cpu.itb.stage2_mmu.stage2_tlb.walker.requestOrigin::total            0                       # Table walker requests started/completed, data/inst
system.cpu.itb.stage2_mmu.stage2_tlb.walker.power_state.pwrStateResidencyTicks::UNDEFINED 705785728000                       # Cumulative time (in ticks) in various power states
system.cpu.itb.walker.walks                         0                       # Table walker walks requested
system.cpu.itb.walker.requestOrigin_Requested::Data            0                       # Table walker requests started/completed, data/inst
system.cpu.itb.walker.requestOrigin_Requested::Inst            0                       # Table walker requests started/completed, data/inst
system.cpu.itb.walker.requestOrigin_Requested::total            0                       # Table walker requests started/completed, data/inst
system.cpu.itb.walker.requestOrigin_Completed::Data            0                       # Table walker requests started/completed, data/inst
system.cpu.itb.walker.requestOrigin_Completed::Inst            0                       # Table walker requests started/completed, data/inst
system.cpu.itb.walker.requestOrigin_Completed::total            0                       # Table walker requests started/completed, data/inst
system.cpu.itb.walker.requestOrigin::total            0                       # Table walker requests started/completed, data/inst
system.cpu.itb.walker.power_state.pwrStateResidencyTicks::UNDEFINED 705785728000                       # Cumulative time (in ticks) in various power states
system.cpu.power_state.pwrStateResidencyTicks::ON 705785728000                       # Cumulative time (in ticks) in various power states
system.cpu.thread_0.numInsts                100000001                       # Number of Instructions committed
system.cpu.thread_0.numOps                  184218784                       # Number of Ops committed
system.cpu.thread_0.numMemRefs                      0                       # Number of Memory References
system.cpu_clk_domain.clock                      1000                       # Clock period in ticks
system.cpu_voltage_domain.voltage                   1                       # Voltage in Volts
system.l2.demand_hits::.cpu.inst                 4186                       # number of demand (read+write) hits
system.l2.demand_hits::.cpu.data                15394                       # number of demand (read+write) hits
system.l2.demand_hits::total                    19580                       # number of demand (read+write) hits
system.l2.overall_hits::.cpu.inst                4186                       # number of overall hits
system.l2.overall_hits::.cpu.data               15394                       # number of overall hits
system.l2.overall_hits::total                   19580                       # number of overall hits
system.l2.demand_misses::.cpu.inst                603                       # number of demand (read+write) misses
system.l2.demand_misses::.cpu.data            5263305                       # number of demand (read+write) misses
system.l2.demand_misses::total                5263908                       # number of demand (read+write) misses
system.l2.overall_misses::.cpu.inst               603                       # number of overall misses
system.l2.overall_misses::.cpu.data           5263305                       # number of overall misses
system.l2.overall_misses::total               5263908                       # number of overall misses
system.l2.demand_miss_latency::.cpu.inst     60664000                       # number of demand (read+write) miss cycles
system.l2.demand_miss_latency::.cpu.data 525762213000                       # number of demand (read+write) miss cycles
system.l2.demand_miss_latency::total     525822877000                       # number of demand (read+write) miss cycles
system.l2.overall_miss_latency::.cpu.inst     60664000                       # number of overall miss cycles
system.l2.overall_miss_latency::.cpu.data 525762213000                       # number of overall miss cycles
system.l2.overall_miss_latency::total    525822877000                       # number of overall miss cycles
system.l2.demand_accesses::.cpu.inst             4789                       # number of demand (read+write) accesses
system.l2.demand_accesses::.cpu.data          5278699                       # number of demand (read+write) accesses
system.l2.demand_accesses::total              5283488                       # number of demand (read+write) accesses
system.l2.overall_accesses::.cpu.inst            4789                       # number of overall (read+write) accesses
system.l2.overall_accesses::.cpu.data         5278699                       # number of overall (read+write) accesses
system.l2.overall_accesses::total             5283488                       # number of overall (read+write) accesses
system.l2.demand_miss_rate::.cpu.inst        0.125914                       # miss rate for demand accesses
system.l2.demand_miss_rate::.cpu.data        0.997084                       # miss rate for demand accesses
system.l2.demand_miss_rate::total            0.996294                       # miss rate for demand accesses
system.l2.overall_miss_rate::.cpu.inst       0.125914                       # miss rate for overall accesses
system.l2.overall_miss_rate::.cpu.data       0.997084                       # miss rate for overall accesses
system.l2.overall_miss_rate::total           0.996294                       # miss rate for overall accesses
system.l2.demand_avg_miss_latency::.cpu.inst 100603.648425                       # average overall miss latency
system.l2.demand_avg_miss_latency::.cpu.data 99892.028488                       # average overall miss latency
system.l2.demand_avg_miss_latency::total 99892.110006                       # average overall miss latency
system.l2.overall_avg_miss_latency::.cpu.inst 100603.648425                       # average overall miss latency
system.l2.overall_avg_miss_latency::.cpu.data 99892.028488                       # average overall miss latency
system.l2.overall_avg_miss_latency::total 99892.110006                       # average overall miss latency
system.l2.blocked_cycles::no_mshrs                  0                       # number of cycles access was blocked
system.l2.blocked_cycles::no_targets                0                       # number of cycles access was blocked
system.l2.blocked::no_mshrs                         0                       # number of cycles access was blocked
system.l2.blocked::no_targets                       0                       # number of cycles access was blocked
system.l2.avg_blocked_cycles::no_mshrs            nan                       # average number of cycles each access was blocked
system.l2.avg_blocked_cycles::no_targets          nan                       # average number of cycles each access was blocked
system.l2.writebacks::.writebacks             5230283                       # number of writebacks
system.l2.writebacks::total                   5230283                       # number of writebacks
system.l2.demand_mshr_hits::.cpu.data               6                       # number of demand (read+write) MSHR hits
system.l2.demand_mshr_hits::total                   6                       # number of demand (read+write) MSHR hits
system.l2.overall_mshr_hits::.cpu.data              6                       # number of overall MSHR hits
system.l2.overall_mshr_hits::total                  6                       # number of overall MSHR hits
system.l2.demand_mshr_misses::.cpu.inst           603                       # number of demand (read+write) MSHR misses
system.l2.demand_mshr_misses::.cpu.data       5263299                       # number of demand (read+write) MSHR misses
system.l2.demand_mshr_misses::total           5263902                       # number of demand (read+write) MSHR misses
system.l2.overall_mshr_misses::.cpu.inst          603                       # number of overall MSHR misses
system.l2.overall_mshr_misses::.cpu.data      5263299                       # number of overall MSHR misses
system.l2.overall_mshr_misses::total          5263902                       # number of overall MSHR misses
system.l2.demand_mshr_miss_latency::.cpu.inst     48604000                       # number of demand (read+write) MSHR miss cycles
system.l2.demand_mshr_miss_latency::.cpu.data 420495730000                       # number of demand (read+write) MSHR miss cycles
system.l2.demand_mshr_miss_latency::total 420544334000                       # number of demand (read+write) MSHR miss cycles
system.l2.overall_mshr_miss_latency::.cpu.inst     48604000                       # number of overall MSHR miss cycles
system.l2.overall_mshr_miss_latency::.cpu.data 420495730000                       # number of overall MSHR miss cycles
system.l2.overall_mshr_miss_latency::total 420544334000                       # number of overall MSHR miss cycles
system.l2.demand_mshr_miss_rate::.cpu.inst     0.125914                       # mshr miss rate for demand accesses
system.l2.demand_mshr_miss_rate::.cpu.data     0.997083                       # mshr miss rate for demand accesses
system.l2.demand_mshr_miss_rate::total       0.996293                       # mshr miss rate for demand accesses
system.l2.overall_mshr_miss_rate::.cpu.inst     0.125914                       # mshr miss rate for overall accesses
system.l2.overall_mshr_miss_rate::.cpu.data     0.997083                       # mshr miss rate for overall accesses
system.l2.overall_mshr_miss_rate::total      0.996293                       # mshr miss rate for overall accesses
system.l2.demand_avg_mshr_miss_latency::.cpu.inst 80603.648425                       # average overall mshr miss latency
system.l2.demand_avg_mshr_miss_latency::.cpu.data 79892.046794                       # average overall mshr miss latency
system.l2.demand_avg_mshr_miss_latency::total 79892.128311                       # average overall mshr miss latency
system.l2.overall_avg_mshr_miss_latency::.cpu.inst 80603.648425                       # average overall mshr miss latency
system.l2.overall_avg_mshr_miss_latency::.cpu.data 79892.046794                       # average overall mshr miss latency
system.l2.overall_avg_mshr_miss_latency::total 79892.128311                       # average overall mshr miss latency
system.l2.replacements                        5231240                       # number of replacements
system.l2.WritebackDirty_hits::.writebacks      5271715                       # number of WritebackDirty hits
system.l2.WritebackDirty_hits::total          5271715                       # number of WritebackDirty hits
system.l2.WritebackDirty_accesses::.writebacks      5271715                       # number of WritebackDirty accesses(hits+misses)
system.l2.WritebackDirty_accesses::total      5271715                       # number of WritebackDirty accesses(hits+misses)
system.l2.WritebackClean_hits::.writebacks         4529                       # number of WritebackClean hits
system.l2.WritebackClean_hits::total             4529                       # number of WritebackClean hits
system.l2.WritebackClean_accesses::.writebacks         4529                       # number of WritebackClean accesses(hits+misses)
system.l2.WritebackClean_accesses::total         4529                       # number of WritebackClean accesses(hits+misses)
system.l2.ReadExReq_hits::.cpu.data              7395                       # number of ReadExReq hits
system.l2.ReadExReq_hits::total                  7395                       # number of ReadExReq hits
system.l2.ReadExReq_misses::.cpu.data         5263022                       # number of ReadExReq misses
system.l2.ReadExReq_misses::total             5263022                       # number of ReadExReq misses
system.l2.ReadExReq_miss_latency::.cpu.data 525732722000                       # number of ReadExReq miss cycles
system.l2.ReadExReq_miss_latency::total  525732722000                       # number of ReadExReq miss cycles
system.l2.ReadExReq_accesses::.cpu.data       5270417                       # number of ReadExReq accesses(hits+misses)
system.l2.ReadExReq_accesses::total           5270417                       # number of ReadExReq accesses(hits+misses)
system.l2.ReadExReq_miss_rate::.cpu.data     0.998597                       # miss rate for ReadExReq accesses
system.l2.ReadExReq_miss_rate::total         0.998597                       # miss rate for ReadExReq accesses
system.l2.ReadExReq_avg_miss_latency::.cpu.data 99891.796386                       # average ReadExReq miss latency
system.l2.ReadExReq_avg_miss_latency::total 99891.796386                       # average ReadExReq miss latency
system.l2.ReadExReq_mshr_misses::.cpu.data      5263022                       # number of ReadExReq MSHR misses
system.l2.ReadExReq_mshr_misses::total        5263022                       # number of ReadExReq MSHR misses
system.l2.ReadExReq_mshr_miss_latency::.cpu.data 420472282000                       # number of ReadExReq MSHR miss cycles
system.l2.ReadExReq_mshr_miss_latency::total 420472282000                       # number of ReadExReq MSHR miss cycles
system.l2.ReadExReq_mshr_miss_rate::.cpu.data     0.998597                       # mshr miss rate for ReadExReq accesses
system.l2.ReadExReq_mshr_miss_rate::total     0.998597                       # mshr miss rate for ReadExReq accesses
system.l2.ReadExReq_avg_mshr_miss_latency::.cpu.data 79891.796386                       # average ReadExReq mshr miss latency
system.l2.ReadExReq_avg_mshr_miss_latency::total 79891.796386                       # average ReadExReq mshr miss latency
system.l2.ReadCleanReq_hits::.cpu.inst           4186                       # number of ReadCleanReq hits
system.l2.ReadCleanReq_hits::total               4186                       # number of ReadCleanReq hits
system.l2.ReadCleanReq_misses::.cpu.inst          603                       # number of ReadCleanReq misses
system.l2.ReadCleanReq_misses::total              603                       # number of ReadCleanReq misses
system.l2.ReadCleanReq_miss_latency::.cpu.inst     60664000                       # number of ReadCleanReq miss cycles
system.l2.ReadCleanReq_miss_latency::total     60664000                       # number of ReadCleanReq miss cycles
system.l2.ReadCleanReq_accesses::.cpu.inst         4789                       # number of ReadCleanReq accesses(hits+misses)
system.l2.ReadCleanReq_accesses::total           4789                       # number of ReadCleanReq accesses(hits+misses)
system.l2.ReadCleanReq_miss_rate::.cpu.inst     0.125914                       # miss rate for ReadCleanReq accesses
system.l2.ReadCleanReq_miss_rate::total      0.125914                       # miss rate for ReadCleanReq accesses
system.l2.ReadCleanReq_avg_miss_latency::.cpu.inst 100603.648425                       # average ReadCleanReq miss latency
system.l2.ReadCleanReq_avg_miss_latency::total 100603.648425                       # average ReadCleanReq miss latency
system.l2.ReadCleanReq_mshr_misses::.cpu.inst          603                       # number of ReadCleanReq MSHR misses
system.l2.ReadCleanReq_mshr_misses::total          603                       # number of ReadCleanReq MSHR misses
system.l2.ReadCleanReq_mshr_miss_latency::.cpu.inst     48604000                       # number of ReadCleanReq MSHR miss cycles
system.l2.ReadCleanReq_mshr_miss_latency::total     48604000                       # number of ReadCleanReq MSHR miss cycles
system.l2.ReadCleanReq_mshr_miss_rate::.cpu.inst     0.125914                       # mshr miss rate for ReadCleanReq accesses
system.l2.ReadCleanReq_mshr_miss_rate::total     0.125914                       # mshr miss rate for ReadCleanReq accesses
system.l2.ReadCleanReq_avg_mshr_miss_latency::.cpu.inst 80603.648425                       # average ReadCleanReq mshr miss latency
system.l2.ReadCleanReq_avg_mshr_miss_latency::total 80603.648425                       # average ReadCleanReq mshr miss latency
system.l2.ReadSharedReq_hits::.cpu.data          7999                       # number of ReadSharedReq hits
system.l2.ReadSharedReq_hits::total              7999                       # number of ReadSharedReq hits
system.l2.ReadSharedReq_misses::.cpu.data          283                       # number of ReadSharedReq misses
system.l2.ReadSharedReq_misses::total             283                       # number of ReadSharedReq misses
system.l2.ReadSharedReq_miss_latency::.cpu.data     29491000                       # number of ReadSharedReq miss cycles
system.l2.ReadSharedReq_miss_latency::total     29491000                       # number of ReadSharedReq miss cycles
system.l2.ReadSharedReq_accesses::.cpu.data         8282                       # number of ReadSharedReq accesses(hits+misses)
system.l2.ReadSharedReq_accesses::total          8282                       # number of ReadSharedReq accesses(hits+misses)
system.l2.ReadSharedReq_miss_rate::.cpu.data     0.034170                       # miss rate for ReadSharedReq accesses
system.l2.ReadSharedReq_miss_rate::total     0.034170                       # miss rate for ReadSharedReq accesses
system.l2.ReadSharedReq_avg_miss_latency::.cpu.data 104208.480565                       # average ReadSharedReq miss latency
system.l2.ReadSharedReq_avg_miss_latency::total 104208.480565                       # average ReadSharedReq miss latency
system.l2.ReadSharedReq_mshr_hits::.cpu.data            6                       # number of ReadSharedReq MSHR hits
system.l2.ReadSharedReq_mshr_hits::total            6                       # number of ReadSharedReq MSHR hits
system.l2.ReadSharedReq_mshr_misses::.cpu.data          277                       # number of ReadSharedReq MSHR misses
system.l2.ReadSharedReq_mshr_misses::total          277                       # number of ReadSharedReq MSHR misses
system.l2.ReadSharedReq_mshr_miss_latency::.cpu.data     23448000                       # number of ReadSharedReq MSHR miss cycles
system.l2.ReadSharedReq_mshr_miss_latency::total     23448000                       # number of ReadSharedReq MSHR miss cycles
system.l2.ReadSharedReq_mshr_miss_rate::.cpu.data     0.033446                       # mshr miss rate for ReadSharedReq accesses
system.l2.ReadSharedReq_mshr_miss_rate::total     0.033446                       # mshr miss rate for ReadSharedReq accesses
system.l2.ReadSharedReq_avg_mshr_miss_latency::.cpu.data 84649.819495                       # average ReadSharedReq mshr miss latency
system.l2.ReadSharedReq_avg_mshr_miss_latency::total 84649.819495                       # average ReadSharedReq mshr miss latency
system.l2.power_state.pwrStateResidencyTicks::UNDEFINED 705785728000                       # Cumulative time (in ticks) in various power states
system.l2.tags.tagsinuse                 32413.727744                       # Cycle average of tags in use
system.l2.tags.total_refs                    10565088                       # Total number of references to valid blocks.
system.l2.tags.sampled_refs                   5264008                       # Sample count of references to valid blocks.
system.l2.tags.avg_refs                      2.007043                       # Average number of references to valid blocks.
system.l2.tags.warmup_cycle                     87000                       # Cycle when the warmup percentage was hit.
system.l2.tags.occ_blocks::.writebacks       0.390299                       # Average occupied blocks per requestor
system.l2.tags.occ_blocks::.cpu.inst         5.350985                       # Average occupied blocks per requestor
system.l2.tags.occ_blocks::.cpu.data     32407.986460                       # Average occupied blocks per requestor
system.l2.tags.occ_percent::.writebacks      0.000012                       # Average percentage of cache occupancy
system.l2.tags.occ_percent::.cpu.inst        0.000163                       # Average percentage of cache occupancy
system.l2.tags.occ_percent::.cpu.data        0.989013                       # Average percentage of cache occupancy
system.l2.tags.occ_percent::total            0.989188                       # Average percentage of cache occupancy
system.l2.tags.occ_task_id_blocks::1024         32768                       # Occupied blocks per task id
system.l2.tags.age_task_id_blocks_1024::0           74                       # Occupied blocks per task id
system.l2.tags.age_task_id_blocks_1024::1          680                       # Occupied blocks per task id
system.l2.tags.age_task_id_blocks_1024::2         6780                       # Occupied blocks per task id
system.l2.tags.age_task_id_blocks_1024::3        25234                       # Occupied blocks per task id
system.l2.tags.occ_task_id_percent::1024            1                       # Percentage of cache occupancy per task id
system.l2.tags.tag_accesses                  26394196                       # Number of tag accesses
system.l2.tags.data_accesses                 26394196                       # Number of data accesses
system.l2.tags.power_state.pwrStateResidencyTicks::UNDEFINED 705785728000                       # Cumulative time (in ticks) in various power states
system.mem_ctrls.avgPriority_.writebacks::samples   5230283.00                       # Average QoS priority value for accepted requests
system.mem_ctrls.avgPriority_.cpu.inst::samples       603.00                       # Average QoS priority value for accepted requests
system.mem_ctrls.avgPriority_.cpu.data::samples   5263299.00                       # Average QoS priority value for accepted requests
system.mem_ctrls.priorityMinLatency      0.000000018750                       # per QoS priority minimum request to response latency (s)
system.mem_ctrls.priorityMaxLatency      0.000567874500                       # per QoS priority maximum request to response latency (s)
system.mem_ctrls.numReadWriteTurnArounds       326415                       # Number of turnarounds from READ to WRITE
system.mem_ctrls.numWriteReadTurnArounds       326415                       # Number of turnarounds from WRITE to READ
system.mem_ctrls.numStayReadState            15610457                       # Number of times bus staying in READ state
system.mem_ctrls.numStayWriteState            4903900                       # Number of times bus staying in WRITE state
system.mem_ctrls.readReqs                     5263902                       # Number of read requests accepted
system.mem_ctrls.writeReqs                    5230283                       # Number of write requests accepted
system.mem_ctrls.readBursts                   5263902                       # Number of controller read bursts, including those serviced by the write queue
system.mem_ctrls.writeBursts                  5230283                       # Number of controller write bursts, including those merged in the write queue
system.mem_ctrls.servicedByWrQ                      0                       # Number of controller read bursts serviced by the write queue
system.mem_ctrls.mergedWrBursts                     0                       # Number of controller write bursts merged with an existing one
system.mem_ctrls.neitherReadNorWriteReqs            0                       # Number of requests that are neither read nor write
system.mem_ctrls.avgRdQLen                       1.00                       # Average read queue length when enqueuing
system.mem_ctrls.avgWrQLen                      25.44                       # Average write queue length when enqueuing
system.mem_ctrls.numRdRetry                         0                       # Number of times read queue was full causing retry
system.mem_ctrls.numWrRetry                         0                       # Number of times write queue was full causing retry
system.mem_ctrls.readPktSize::0                     0                       # Read request sizes (log2)
system.mem_ctrls.readPktSize::1                     0                       # Read request sizes (log2)
system.mem_ctrls.readPktSize::2                     0                       # Read request sizes (log2)
system.mem_ctrls.readPktSize::3                     0                       # Read request sizes (log2)
system.mem_ctrls.readPktSize::4                     0                       # Read request sizes (log2)
system.mem_ctrls.readPktSize::5                     0                       # Read request sizes (log2)
system.mem_ctrls.readPktSize::6               5263902                       # Read request sizes (log2)
system.mem_ctrls.writePktSize::0                    0                       # Write request sizes (log2)
system.mem_ctrls.writePktSize::1                    0                       # Write request sizes (log2)
system.mem_ctrls.writePktSize::2                    0                       # Write request sizes (log2)
system.mem_ctrls.writePktSize::3                    0                       # Write request sizes (log2)
system.mem_ctrls.writePktSize::4                    0                       # Write request sizes (log2)
system.mem_ctrls.writePktSize::5                    0                       # Write request sizes (log2)
system.mem_ctrls.writePktSize::6              5230283                       # Write request sizes (log2)
system.mem_ctrls.rdQLenPdf::0                 5263661                       # What read queue length does an incoming req see
system.mem_ctrls.rdQLenPdf::1                     220                       # What read queue length does an incoming req see
system.mem_ctrls.rdQLenPdf::2                      20                       # What read queue length does an incoming req see
system.mem_ctrls.rdQLenPdf::3                       1                       # What read queue length does an incoming req see
system.mem_ctrls.rdQLenPdf::4                       0                       # What read queue length does an incoming req see
system.mem_ctrls.rdQLenPdf::5                       0                       # What read queue length does an incoming req see
system.mem_ctrls.rdQLenPdf::6                       0                       # What read queue length does an incoming req see
system.mem_ctrls.rdQLenPdf::7                       0                       # What read queue length does an incoming req see
system.mem_ctrls.rdQLenPdf::8                       0                       # What read queue length does an incoming req see
system.mem_ctrls.rdQLenPdf::9                       0                       # What read queue length does an incoming req see
system.mem_ctrls.rdQLenPdf::10                      0                       # What read queue length does an incoming req see
system.mem_ctrls.rdQLenPdf::11                      0                       # What read queue length does an incoming req see
system.mem_ctrls.rdQLenPdf::12                      0                       # What read queue length does an incoming req see
system.mem_ctrls.rdQLenPdf::13                      0                       # What read queue length does an incoming req see
system.mem_ctrls.rdQLenPdf::14                      0                       # What read queue length does an incoming req see
[...]
system.mem_ctrls.dram.bw_write::.writebacks    474277247                       # Write bandwidth from this memory (bytes/s)
system.mem_ctrls.dram.bw_write::total       474277247                       # Write bandwidth from this memory (bytes/s)
system.mem_ctrls.dram.bw_total::.writebacks    474277247                       # Total bandwidth to/from this memory (bytes/s)
system.mem_ctrls.dram.bw_total::.cpu.inst        54679                       # Total bandwidth to/from this memory (bytes/s)
system.mem_ctrls.dram.bw_total::.cpu.data    477271107                       # Total bandwidth to/from this memory (bytes/s)
system.mem_ctrls.dram.bw_total::total       951603034                       # Total bandwidth to/from this memory (bytes/s)
system.mem_ctrls.dram.readBursts              5263902                       # Number of DRAM read bursts
system.mem_ctrls.dram.writeBursts             5230264                       # Number of DRAM write bursts
system.mem_ctrls.dram.perBankRdBursts::0       328924                       # Per bank write bursts
system.mem_ctrls.dram.perBankRdBursts::1       329089                       # Per bank write bursts
system.mem_ctrls.dram.perBankRdBursts::2       329059                       # Per bank write bursts
system.mem_ctrls.dram.perBankRdBursts::3       329078                       # Per bank write bursts
system.mem_ctrls.dram.perBankRdBursts::4       328991                       # Per bank write bursts
system.mem_ctrls.dram.perBankRdBursts::5       329077                       # Per bank write bursts
system.mem_ctrls.dram.perBankRdBursts::6       329082                       # Per bank write bursts
system.mem_ctrls.dram.perBankRdBursts::7       329024                       # Per bank write bursts
system.mem_ctrls.dram.perBankRdBursts::8       328905                       # Per bank write bursts
system.mem_ctrls.dram.perBankRdBursts::9       328865                       # Per bank write bursts
system.mem_ctrls.dram.perBankRdBursts::10       328906                       # Per bank write bursts
system.mem_ctrls.dram.perBankRdBursts::11       328926                       # Per bank write bursts
system.mem_ctrls.dram.perBankRdBursts::12       329019                       # Per bank write bursts
system.mem_ctrls.dram.perBankRdBursts::13       329022                       # Per bank write bursts
system.mem_ctrls.dram.perBankRdBursts::14       328992                       # Per bank write bursts
system.mem_ctrls.dram.perBankRdBursts::15       328943                       # Per bank write bursts
system.mem_ctrls.dram.perBankWrBursts::0       326789                       # Per bank write bursts
system.mem_ctrls.dram.perBankWrBursts::1       326941                       # Per bank write bursts
system.mem_ctrls.dram.perBankWrBursts::2       326937                       # Per bank write bursts
system.mem_ctrls.dram.perBankWrBursts::3       327006                       # Per bank write bursts
system.mem_ctrls.dram.perBankWrBursts::4       326926                       # Per bank write bursts
system.mem_ctrls.dram.perBankWrBursts::5       326985                       # Per bank write bursts
system.mem_ctrls.dram.perBankWrBursts::6       326986                       # Per bank write bursts
system.mem_ctrls.dram.perBankWrBursts::7       326958                       # Per bank write bursts
system.mem_ctrls.dram.perBankWrBursts::8       326785                       # Per bank write bursts
system.mem_ctrls.dram.perBankWrBursts::9       326784                       # Per bank write bursts
system.mem_ctrls.dram.perBankWrBursts::10       326784                       # Per bank write bursts
system.mem_ctrls.dram.perBankWrBursts::11       326839                       # Per bank write bursts
system.mem_ctrls.dram.perBankWrBursts::12       326913                       # Per bank write bursts
system.mem_ctrls.dram.perBankWrBursts::13       326905                       # Per bank write bursts
system.mem_ctrls.dram.perBankWrBursts::14       326861                       # Per bank write bursts
system.mem_ctrls.dram.perBankWrBursts::15       326865                       # Per bank write bursts
system.mem_ctrls.dram.totQLat             52010671250                       # Total ticks spent queuing
system.mem_ctrls.dram.totBusLat           26319510000                       # Total ticks spent in databus transfers
system.mem_ctrls.dram.totMemAccLat       150708833750                       # Total ticks spent from burst creation until serviced by the DRAM
system.mem_ctrls.dram.avgQLat                 9880.63                       # Average queueing delay per DRAM burst
system.mem_ctrls.dram.avgBusLat               5000.00                       # Average bus latency per DRAM burst
system.mem_ctrls.dram.avgMemAccLat           28630.63                       # Average memory access latency per DRAM burst
system.mem_ctrls.dram.readRowHits             4810210                       # Number of row buffer hits during reads
system.mem_ctrls.dram.writeRowHits            4864215                       # Number of row buffer hits during writes
system.mem_ctrls.dram.readRowHitRate            91.38                       # Row buffer hit rate for reads
system.mem_ctrls.dram.writeRowHitRate           93.00                       # Row buffer hit rate for writes
system.mem_ctrls.dram.bytesPerActivate::samples       819740                       # Bytes accessed per row activation
system.mem_ctrls.dram.bytesPerActivate::mean   819.316486                       # Bytes accessed per row activation
system.mem_ctrls.dram.bytesPerActivate::gmean   697.869343                       # Bytes accessed per row activation
system.mem_ctrls.dram.bytesPerActivate::stdev   315.331094                       # Bytes accessed per row activation
system.mem_ctrls.dram.bytesPerActivate::0-127        32888      4.01%      4.01% # Bytes accessed per row activation
system.mem_ctrls.dram.bytesPerActivate::128-255        38032      4.64%      8.65% # Bytes accessed per row activation
system.mem_ctrls.dram.bytesPerActivate::256-383        49715      6.06%     14.72% # Bytes accessed per row activation
system.mem_ctrls.dram.bytesPerActivate::384-511        39653      4.84%     19.55% # Bytes accessed per row activation
system.mem_ctrls.dram.bytesPerActivate::512-639        23103      2.82%     22.37% # Bytes accessed per row activation
system.mem_ctrls.dram.bytesPerActivate::640-767        47632      5.81%     28.18% # Bytes accessed per row activation
system.mem_ctrls.dram.bytesPerActivate::768-895        44038      5.37%     33.55% # Bytes accessed per row activation
system.mem_ctrls.dram.bytesPerActivate::896-1023        38869      4.74%     38.30% # Bytes accessed per row activation
system.mem_ctrls.dram.bytesPerActivate::1024-1151       505810     61.70%    100.00% # Bytes accessed per row activation
system.mem_ctrls.dram.bytesPerActivate::total       819740                       # Bytes accessed per row activation
system.mem_ctrls.dram.bytesRead             336889728                       # Total number of bytes read from DRAM
system.mem_ctrls.dram.bytesWritten          334736896                       # Total number of bytes written to DRAM
system.mem_ctrls.dram.avgRdBW              477.325787                       # Average DRAM read bandwidth in MiBytes/s
system.mem_ctrls.dram.avgWrBW              474.275524                       # Average DRAM write bandwidth in MiBytes/s
system.mem_ctrls.dram.peakBW                 12800.00                       # Theoretical peak bandwidth in MiByte/s
system.mem_ctrls.dram.busUtil                    7.43                       # Data bus utilization in percentage
system.mem_ctrls.dram.busUtilRead                3.73                       # Data bus utilization in percentage for reads
system.mem_ctrls.dram.busUtilWrite               3.71                       # Data bus utilization in percentage for writes
system.mem_ctrls.dram.pageHitRate               92.19                       # Row buffer hit rate, read and write combined
system.mem_ctrls.dram.power_state.pwrStateResidencyTicks::UNDEFINED 705785728000                       # Cumulative time (in ticks) in various power states
system.mem_ctrls.dram.rank0.actEnergy      2926136220                       # Energy for activate commands per rank (pJ)
system.mem_ctrls.dram.rank0.preEnergy      1555274490                       # Energy for precharge commands per rank (pJ)
system.mem_ctrls.dram.rank0.readEnergy    18794793360                       # Energy for read commands per rank (pJ)
system.mem_ctrls.dram.rank0.writeEnergy   13653056160                       # Energy for write commands per rank (pJ)
system.mem_ctrls.dram.rank0.refreshEnergy 55714042800.000008                       # Energy for refresh commands per rank (pJ)
system.mem_ctrls.dram.rank0.actBackEnergy 165935054100                       # Energy for active background per rank (pJ)
system.mem_ctrls.dram.rank0.preBackEnergy 131286937440                       # Energy for precharge background per rank (pJ)
system.mem_ctrls.dram.rank0.actPowerDownEnergy            0                       # Energy for active power-down per rank (pJ)
system.mem_ctrls.dram.rank0.prePowerDownEnergy            0                       # Energy for precharge power-down per rank (pJ)
system.mem_ctrls.dram.rank0.selfRefreshEnergy            0                       # Energy for self refresh per rank (pJ)
system.mem_ctrls.dram.rank0.totalEnergy  389865294570                       # Total energy per rank (pJ)
system.mem_ctrls.dram.rank0.averagePower   552.384781                       # Core power per rank (mW)
system.mem_ctrls.dram.rank0.totalIdleTime            0                       # Total Idle time Per DRAM Rank
system.mem_ctrls.dram.rank0.pwrStateTime::IDLE 336818856000                       # Time in different power states
system.mem_ctrls.dram.rank0.pwrStateTime::REF  23567700000                       # Time in different power states
system.mem_ctrls.dram.rank0.pwrStateTime::SREF            0                       # Time in different power states
system.mem_ctrls.dram.rank0.pwrStateTime::PRE_PDN            0                       # Time in different power states
system.mem_ctrls.dram.rank0.pwrStateTime::ACT 345399172000                       # Time in different power states
system.mem_ctrls.dram.rank0.pwrStateTime::ACT_PDN            0                       # Time in different power states
system.mem_ctrls.dram.rank1.actEnergy      2926814520                       # Energy for activate commands per rank (pJ)
system.mem_ctrls.dram.rank1.preEnergy      1555638810                       # Energy for precharge commands per rank (pJ)
system.mem_ctrls.dram.rank1.readEnergy    18789466920                       # Energy for read commands per rank (pJ)
system.mem_ctrls.dram.rank1.writeEnergy   13648921920                       # Energy for write commands per rank (pJ)
system.mem_ctrls.dram.rank1.refreshEnergy 55714042800.000008                       # Energy for refresh commands per rank (pJ)
system.mem_ctrls.dram.rank1.actBackEnergy 165976712550                       # Energy for active background per rank (pJ)
system.mem_ctrls.dram.rank1.preBackEnergy 131251856640                       # Energy for precharge background per rank (pJ)
system.mem_ctrls.dram.rank1.actPowerDownEnergy            0                       # Energy for active power-down per rank (pJ)
system.mem_ctrls.dram.rank1.prePowerDownEnergy            0                       # Energy for precharge power-down per rank (pJ)
system.mem_ctrls.dram.rank1.selfRefreshEnergy            0                       # Energy for self refresh per rank (pJ)
system.mem_ctrls.dram.rank1.totalEnergy  389863454160                       # Total energy per rank (pJ)
system.mem_ctrls.dram.rank1.averagePower   552.382173                       # Core power per rank (mW)
system.mem_ctrls.dram.rank1.totalIdleTime            0                       # Total Idle time Per DRAM Rank
system.mem_ctrls.dram.rank1.pwrStateTime::IDLE 336727483750                       # Time in different power states
system.mem_ctrls.dram.rank1.pwrStateTime::REF  23567700000                       # Time in different power states
system.mem_ctrls.dram.rank1.pwrStateTime::SREF            0                       # Time in different power states
system.mem_ctrls.dram.rank1.pwrStateTime::PRE_PDN            0                       # Time in different power states
system.mem_ctrls.dram.rank1.pwrStateTime::ACT 345490544250                       # Time in different power states
system.mem_ctrls.dram.rank1.pwrStateTime::ACT_PDN            0                       # Time in different power states
system.mem_ctrls.power_state.pwrStateResidencyTicks::UNDEFINED 705785728000                       # Cumulative time (in ticks) in various power states
system.membus.trans_dist::ReadResp                880                       # Transaction distribution
system.membus.trans_dist::WritebackDirty      5230283                       # Transaction distribution
system.membus.trans_dist::CleanEvict              594                       # Transaction distribution
system.membus.trans_dist::ReadExReq           5263022                       # Transaction distribution
system.membus.trans_dist::ReadExResp          5263022                       # Transaction distribution
system.membus.trans_dist::ReadSharedReq           880                       # Transaction distribution
system.membus.pkt_count_system.l2.mem_side_port::system.mem_ctrls.port     15758681                       # Packet count per connected requestor and responder (bytes)
system.membus.pkt_count::total               15758681                       # Packet count per connected requestor and responder (bytes)
system.membus.pkt_size_system.l2.mem_side_port::system.mem_ctrls.port    671627840                       # Cumulative packet size per connected requestor and responder (bytes)
system.membus.pkt_size::total               671627840                       # Cumulative packet size per connected requestor and responder (bytes)
system.membus.snoops                                0                       # Total snoops (count)
system.membus.snoopTraffic                          0                       # Total snoop traffic (bytes)
system.membus.snoop_fanout::samples           5263902                       # Request fanout histogram
system.membus.snoop_fanout::mean                    0                       # Request fanout histogram
system.membus.snoop_fanout::stdev                   0                       # Request fanout histogram
system.membus.snoop_fanout::underflows              0      0.00%      0.00% # Request fanout histogram
system.membus.snoop_fanout::0                 5263902    100.00%    100.00% # Request fanout histogram
system.membus.snoop_fanout::1                       0      0.00%    100.00% # Request fanout histogram
system.membus.snoop_fanout::overflows               0      0.00%    100.00% # Request fanout histogram
system.membus.snoop_fanout::min_value               0                       # Request fanout histogram
system.membus.snoop_fanout::max_value               0                       # Request fanout histogram
system.membus.snoop_fanout::total             5263902                       # Request fanout histogram
system.membus.power_state.pwrStateResidencyTicks::UNDEFINED 705785728000                       # Cumulative time (in ticks) in various power states
system.membus.reqLayer0.occupancy         31415911000                       # Layer occupancy (ticks)
system.membus.reqLayer0.utilization               4.5                       # Layer utilization (%)
system.membus.respLayer1.occupancy        27695952500                       # Layer occupancy (ticks)
system.membus.respLayer1.utilization              3.9                       # Layer utilization (%)
system.tol2bus.trans_dist::ReadResp             13071                       # Transaction distribution
system.tol2bus.trans_dist::WritebackDirty     10501998                       # Transaction distribution
system.tol2bus.trans_dist::WritebackClean         4541                       # Transaction distribution
system.tol2bus.trans_dist::CleanEvict            7685                       # Transaction distribution
system.tol2bus.trans_dist::ReadExReq          5270417                       # Transaction distribution
system.tol2bus.trans_dist::ReadExResp         5270417                       # Transaction distribution
system.tol2bus.trans_dist::ReadCleanReq          4789                       # Transaction distribution
system.tol2bus.trans_dist::ReadSharedReq         8282                       # Transaction distribution
system.tol2bus.pkt_count_system.cpu.icache.mem_side_port::system.l2.cpu_side_port        14119                       # Packet count per connected requestor and responder (bytes)
system.tol2bus.pkt_count_system.cpu.dcache.mem_side_port::system.l2.cpu_side_port     15835841                       # Packet count per connected requestor and responder (bytes)
system.tol2bus.pkt_count::total              15849960                       # Packet count per connected requestor and responder (bytes)
system.tol2bus.pkt_size_system.cpu.icache.mem_side_port::system.l2.cpu_side_port       597120                       # Cumulative packet size per connected requestor and responder (bytes)
system.tol2bus.pkt_size_system.cpu.dcache.mem_side_port::system.l2.cpu_side_port    675226496                       # Cumulative packet size per connected requestor and responder (bytes)
system.tol2bus.pkt_size::total              675823616                       # Cumulative packet size per connected requestor and responder (bytes)
system.tol2bus.snoops                         5231240                       # Total snoops (count)
system.tol2bus.snoopTraffic                 334738112                       # Total snoop traffic (bytes)
system.tol2bus.snoop_fanout::samples         10514728                       # Request fanout histogram
system.tol2bus.snoop_fanout::mean            0.000166                       # Request fanout histogram
system.tol2bus.snoop_fanout::stdev           0.012867                       # Request fanout histogram
system.tol2bus.snoop_fanout::underflows             0      0.00%      0.00% # Request fanout histogram
system.tol2bus.snoop_fanout::0               10512987     99.98%     99.98% # Request fanout histogram
system.tol2bus.snoop_fanout::1                   1741      0.02%    100.00% # Request fanout histogram
system.tol2bus.snoop_fanout::2                      0      0.00%    100.00% # Request fanout histogram
system.tol2bus.snoop_fanout::overflows              0      0.00%    100.00% # Request fanout histogram
system.tol2bus.snoop_fanout::min_value              0                       # Request fanout histogram
system.tol2bus.snoop_fanout::max_value              1                       # Request fanout histogram
system.tol2bus.snoop_fanout::total           10514728                       # Request fanout histogram
system.tol2bus.power_state.pwrStateResidencyTicks::UNDEFINED 705785728000                       # Cumulative time (in ticks) in various power states
system.tol2bus.reqLayer0.occupancy        21118984000                       # Layer occupancy (ticks)
system.tol2bus.reqLayer0.utilization              3.0                       # Layer utilization (%)
system.tol2bus.respLayer0.occupancy          14367999                       # Layer occupancy (ticks)
system.tol2bus.respLayer0.utilization             0.0                       # Layer utilization (%)
system.tol2bus.respLayer1.occupancy       15836103993                       # Layer occupancy (ticks)
system.tol2bus.respLayer1.utilization             2.2                       # Layer utilization (%)
system.voltage_domain.voltage                       1                       # Voltage in Volts

---------- End Simulation Statistics   ----------
