
---------- Begin Simulation Statistics ----------
final_tick                                57687202500                       # Number of ticks from beginning of simulation (restored from checkpoints and never reset)
host_inst_rate                                 189321                       # Simulator instruction rate (inst/s)
host_mem_usage                                 652520                       # Number of bytes of host memory used
host_op_rate                                   207176                       # Simulator op (including micro ops) rate (op/s)
host_seconds                                   528.20                       # Real time elapsed on the host
host_tick_rate                              109213925                       # Simulator tick rate (ticks/s)
sim_freq                                 1000000000000                       # Frequency of simulated ticks
sim_insts                                   100000001                       # Number of instructions simulated
sim_ops                                     109431277                       # Number of ops (including micro ops) simulated
sim_seconds                                  0.057687                       # Number of seconds simulated
sim_ticks                                 57687202500                       # Number of ticks simulated
system.cpu.committedInsts                   100000001                       # Number of instructions committed
system.cpu.committedOps                     109431277                       # Number of ops (including micro ops) committed
system.cpu.cpi                               1.153744                       # CPI: cycles per instruction
system.cpu.discardedOps                        376537                       # Number of ops (including micro ops) which were discarded before commit
system.cpu.idleCycles                         5237503                       # Total number of cycles that the object has spent stopped
system.cpu.ipc                               0.866743                       # IPC: instructions per cycle
system.cpu.numCycles                        115374405                       # number of cpu cycles simulated
system.cpu.numFetchSuspends                         0                       # Number of times Execute suspended instruction fetching
system.cpu.numWorkItemsCompleted                    0                       # number of work items this cpu completed
system.cpu.numWorkItemsStarted                      0                       # number of work items this cpu started
system.cpu.op_class_0::No_OpClass                   0      0.00%      0.00% # Class of committed instruction
system.cpu.op_class_0::IntAlu                72955010     66.67%     66.67% # Class of committed instruction
system.cpu.op_class_0::IntMult                 568364      0.52%     67.19% # Class of committed instruction
system.cpu.op_class_0::IntDiv                       0      0.00%     67.19% # Class of committed instruction
system.cpu.op_class_0::FloatAdd                     0      0.00%     67.19% # Class of committed instruction
system.cpu.op_class_0::FloatCmp                     0      0.00%     67.19% # Class of committed instruction
system.cpu.op_class_0::FloatCvt                     0      0.00%     67.19% # Class of committed instruction
system.cpu.op_class_0::FloatMult                    0      0.00%     67.19% # Class of committed instruction
system.cpu.op_class_0::FloatMultAcc                 0      0.00%     67.19% # Class of committed instruction
system.cpu.op_class_0::FloatDiv                     0      0.00%     67.19% # Class of committed instruction
system.cpu.op_class_0::FloatMisc                    0      0.00%     67.19% # Class of committed instruction
system.cpu.op_class_0::FloatSqrt                    0      0.00%     67.19% # Class of committed instruction
system.cpu.op_class_0::SimdAdd                 241336      0.22%     67.41% # Class of committed instruction
system.cpu.op_class_0::SimdAddAcc                   0      0.00%     67.41% # Class of committed instruction
system.cpu.op_class_0::SimdAlu                 154628      0.14%     67.55% # Class of committed instruction
system.cpu.op_class_0::SimdCmp                 120668      0.11%     67.66% # Class of committed instruction
system.cpu.op_class_0::SimdCvt                      0      0.00%     67.66% # Class of committed instruction
system.cpu.op_class_0::SimdMisc                 44543      0.04%     67.70% # Class of committed instruction
system.cpu.op_class_0::SimdMult                     0      0.00%     67.70% # Class of committed instruction
system.cpu.op_class_0::SimdMultAcc                  0      0.00%     67.70% # Class of committed instruction
system.cpu.op_class_0::SimdShift                    0      0.00%     67.70% # Class of committed instruction
system.cpu.op_class_0::SimdShiftAcc                 0      0.00%     67.70% # Class of committed instruction
system.cpu.op_class_0::SimdDiv                      0      0.00%     67.70% # Class of committed instruction
system.cpu.op_class_0::SimdSqrt                     0      0.00%     67.70% # Class of committed instruction
system.cpu.op_class_0::SimdFloatAdd                 0      0.00%     67.70% # Class of committed instruction
system.cpu.op_class_0::SimdFloatAlu                 0      0.00%     67.70% # Class of committed instruction
system.cpu.op_class_0::SimdFloatCmp                 0      0.00%     67.70% # Class of committed instruction
system.cpu.op_class_0::SimdFloatCvt                 0      0.00%     67.70% # Class of committed instruction
system.cpu.op_class_0::SimdFloatDiv                 0      0.00%     67.70% # Class of committed instruction
system.cpu.op_class_0::SimdFloatMisc           166417      0.15%     67.85% # Class of committed instruction
system.cpu.op_class_0::SimdFloatMult                0      0.00%     67.85% # Class of committed instruction
system.cpu.op_class_0::SimdFloatMultAcc             0      0.00%     67.85% # Class of committed instruction
system.cpu.op_class_0::SimdFloatSqrt                0      0.00%     67.85% # Class of committed instruction
system.cpu.op_class_0::SimdReduceAdd                0      0.00%     67.85% # Class of committed instruction
system.cpu.op_class_0::SimdReduceAlu                0      0.00%     67.85% # Class of committed instruction
system.cpu.op_class_0::SimdReduceCmp                0      0.00%     67.85% # Class of committed instruction
system.cpu.op_class_0::SimdFloatReduceAdd            0      0.00%     67.85% # Class of committed instruction
system.cpu.op_class_0::SimdFloatReduceCmp            0      0.00%     67.85% # Class of committed instruction
system.cpu.op_class_0::SimdAes                      0      0.00%     67.85% # Class of committed instruction
system.cpu.op_class_0::SimdAesMix                   0      0.00%     67.85% # Class of committed instruction
system.cpu.op_class_0::SimdSha1Hash                 0      0.00%     67.85% # Class of committed instruction
system.cpu.op_class_0::SimdSha1Hash2                0      0.00%     67.85% # Class of committed instruction
system.cpu.op_class_0::SimdSha256Hash               0      0.00%     67.85% # Class of committed instruction
system.cpu.op_class_0::SimdSha256Hash2              0      0.00%     67.85% # Class of committed instruction
system.cpu.op_class_0::SimdShaSigma2                0      0.00%     67.85% # Class of committed instruction
system.cpu.op_class_0::SimdShaSigma3                0      0.00%     67.85% # Class of committed instruction
system.cpu.op_class_0::SimdPredAlu                  0      0.00%     67.85% # Class of committed instruction
system.cpu.op_class_0::MemRead               20645992     18.87%     86.72% # Class of committed instruction
system.cpu.op_class_0::MemWrite              14534319     13.28%    100.00% # Class of committed instruction
system.cpu.op_class_0::FloatMemRead                 0      0.00%    100.00% # Class of committed instruction
system.cpu.op_class_0::FloatMemWrite                0      0.00%    100.00% # Class of committed instruction
system.cpu.op_class_0::IprAccess                    0      0.00%    100.00% # Class of committed instruction
system.cpu.op_class_0::InstPrefetch                 0      0.00%    100.00% # Class of committed instruction
system.cpu.op_class_0::total                109431277                       # Class of committed instruction
system.cpu.tickCycles                       110136902                       # Number of cycles that the object actually ticked
system.cpu.workload.numSyscalls                    87                       # Number of system calls
system.membus.snoop_filter.hit_multi_requests            0                       # Number of requests hitting in the snoop filter with multiple (>1) holders of the requested data.
system.membus.snoop_filter.hit_multi_snoops            0                       # Number of snoops hitting in the snoop filter with multiple (>1) holders of the requested data.
system.membus.snoop_filter.hit_single_requests        37820                       # Number of requests hitting in the snoop filter with a single holder of the requested data.
system.membus.snoop_filter.hit_single_snoops            0                       # Number of snoops hitting in the snoop filter with a single holder of the requested data.
system.membus.snoop_filter.tot_requests         84301                       # Total number of requests made to the snoop filter.
system.membus.snoop_filter.tot_snoops               0                       # Total number of snoops made to the snoop filter.
system.tol2bus.snoop_filter.hit_multi_requests           40                       # Number of requests hitting in the snoop filter with multiple (>1) holders of the requested data.
system.tol2bus.snoop_filter.hit_multi_snoops           11                       # Number of snoops hitting in the snoop filter with multiple (>1) holders of the requested data.
system.tol2bus.snoop_filter.hit_single_requests        63613                       # Number of requests hitting in the snoop filter with a single holder of the requested data.
system.tol2bus.snoop_filter.hit_single_snoops          684                       # Number of snoops hitting in the snoop filter with a single holder of the requested data.
system.tol2bus.snoop_filter.tot_requests       128186                       # Total number of requests made to the snoop filter.
system.tol2bus.snoop_filter.tot_snoops            695                       # Total number of snoops made to the snoop filter.
system.clk_domain.clock                          1000                       # Clock period in ticks
system.cpu.branchPred.lookups                20360409                       # Number of BP lookups
system.cpu.branchPred.condPredicted          16297633                       # Number of conditional branches predicted
system.cpu.branchPred.condIncorrect             53397                       # Number of conditional branches incorrect
system.cpu.branchPred.BTBLookups              8737534                       # Number of BTB lookups
system.cpu.branchPred.BTBHits                 8736140                       # Number of BTB hits
system.cpu.branchPred.BTBHitPct             99.984046                       # BTB Hit Percentage
system.cpu.branchPred.RASUsed                 1050581                       # Number of times the RAS was used to get a target.
system.cpu.branchPred.RASIncorrect                326                       # Number of incorrect RAS predictions.
system.cpu.branchPred.indirectLookups          434011                       # Number of indirect predictor lookups.
system.cpu.branchPred.indirectHits             300030                       # Number of indirect target hits.
system.cpu.branchPred.indirectMisses           133981                       # Number of indirect misses.
system.cpu.branchPred.indirectMispredicted         1033                       # Number of mispredicted indirect branches.
system.cpu.dcache.demand_hits::.cpu.data     35598874                       # number of demand (read+write) hits
system.cpu.dcache.demand_hits::total         35598874                       # number of demand (read+write) hits
system.cpu.dcache.overall_hits::.cpu.data     35602173                       # number of overall hits
system.cpu.dcache.overall_hits::total        35602173                       # number of overall hits
system.cpu.dcache.demand_misses::.cpu.data        87229                       # number of demand (read+write) misses
system.cpu.dcache.demand_misses::total          87229                       # number of demand (read+write) misses
system.cpu.dcache.overall_misses::.cpu.data        87291                       # number of overall misses
system.cpu.dcache.overall_misses::total         87291                       # number of overall misses
system.cpu.dcache.demand_miss_latency::.cpu.data   5444416000                       # number of demand (read+write) miss cycles
system.cpu.dcache.demand_miss_latency::total   5444416000                       # number of demand (read+write) miss cycles
system.cpu.dcache.overall_miss_latency::.cpu.data   5444416000                       # number of overall miss cycles
system.cpu.dcache.overall_miss_latency::total   5444416000                       # number of overall miss cycles
system.cpu.dcache.demand_accesses::.cpu.data     35686103                       # number of demand (read+write) accesses
system.cpu.dcache.demand_accesses::total     35686103                       # number of demand (read+write) accesses
system.cpu.dcache.overall_accesses::.cpu.data     35689464                       # number of overall (read+write) accesses
system.cpu.dcache.overall_accesses::total     35689464                       # number of overall (read+write) accesses
system.cpu.dcache.demand_miss_rate::.cpu.data     0.002444                       # miss rate for demand accesses
system.cpu.dcache.demand_miss_rate::total     0.002444                       # miss rate for demand accesses
system.cpu.dcache.overall_miss_rate::.cpu.data     0.002446                       # miss rate for overall accesses
system.cpu.dcache.overall_miss_rate::total     0.002446                       # miss rate for overall accesses
system.cpu.dcache.demand_avg_miss_latency::.cpu.data 62415.205952                       # average overall miss latency
system.cpu.dcache.demand_avg_miss_latency::total 62415.205952                       # average overall miss latency
system.cpu.dcache.overall_avg_miss_latency::.cpu.data 62370.874431                       # average overall miss latency
system.cpu.dcache.overall_avg_miss_latency::total 62370.874431                       # average overall miss latency
system.cpu.dcache.blocked_cycles::no_mshrs            0                       # number of cycles access was blocked
system.cpu.dcache.blocked_cycles::no_targets            0                       # number of cycles access was blocked
system.cpu.dcache.blocked::no_mshrs                 0                       # number of cycles access was blocked
system.cpu.dcache.blocked::no_targets               0                       # number of cycles access was blocked
system.cpu.dcache.avg_blocked_cycles::no_mshrs          nan                       # average number of cycles each access was blocked
system.cpu.dcache.avg_blocked_cycles::no_targets          nan                       # average number of cycles each access was blocked
system.cpu.dcache.writebacks::.writebacks        54018                       # number of writebacks
system.cpu.dcache.writebacks::total             54018                       # number of writebacks
system.cpu.dcache.demand_mshr_hits::.cpu.data        23479                       # number of demand (read+write) MSHR hits
system.cpu.dcache.demand_mshr_hits::total        23479                       # number of demand (read+write) MSHR hits
system.cpu.dcache.overall_mshr_hits::.cpu.data        23479                       # number of overall MSHR hits
system.cpu.dcache.overall_mshr_hits::total        23479                       # number of overall MSHR hits
system.cpu.dcache.demand_mshr_misses::.cpu.data        63750                       # number of demand (read+write) MSHR misses
system.cpu.dcache.demand_mshr_misses::total        63750                       # number of demand (read+write) MSHR misses
system.cpu.dcache.overall_mshr_misses::.cpu.data        63807                       # number of overall MSHR misses
system.cpu.dcache.overall_mshr_misses::total        63807                       # number of overall MSHR misses
system.cpu.dcache.demand_mshr_miss_latency::.cpu.data   4205229500                       # number of demand (read+write) MSHR miss cycles
system.cpu.dcache.demand_mshr_miss_latency::total   4205229500                       # number of demand (read+write) MSHR miss cycles
system.cpu.dcache.overall_mshr_miss_latency::.cpu.data   4207257000                       # number of overall MSHR miss cycles
system.cpu.dcache.overall_mshr_miss_latency::total   4207257000                       # number of overall MSHR miss cycles
system.cpu.dcache.demand_mshr_miss_rate::.cpu.data     0.001786                       # mshr miss rate for demand accesses
system.cpu.dcache.demand_mshr_miss_rate::total     0.001786                       # mshr miss rate for demand accesses
system.cpu.dcache.overall_mshr_miss_rate::.cpu.data     0.001788                       # mshr miss rate for overall accesses
system.cpu.dcache.overall_mshr_miss_rate::total     0.001788                       # mshr miss rate for overall accesses
system.cpu.dcache.demand_avg_mshr_miss_latency::.cpu.data 65964.384314                       # average overall mshr miss latency
system.cpu.dcache.demand_avg_mshr_miss_latency::total 65964.384314                       # average overall mshr miss latency
system.cpu.dcache.overall_avg_mshr_miss_latency::.cpu.data 65937.232592                       # average overall mshr miss latency
system.cpu.dcache.overall_avg_mshr_miss_latency::total 65937.232592                       # average overall mshr miss latency
system.cpu.dcache.replacements                  63295                       # number of replacements
system.cpu.dcache.ReadReq_hits::.cpu.data     21400393                       # number of ReadReq hits
system.cpu.dcache.ReadReq_hits::total        21400393                       # number of ReadReq hits
system.cpu.dcache.ReadReq_misses::.cpu.data        31442                       # number of ReadReq misses
system.cpu.dcache.ReadReq_misses::total         31442                       # number of ReadReq misses
system.cpu.dcache.ReadReq_miss_latency::.cpu.data   1005205500                       # number of ReadReq miss cycles
system.cpu.dcache.ReadReq_miss_latency::total   1005205500                       # number of ReadReq miss cycles
system.cpu.dcache.ReadReq_accesses::.cpu.data     21431835                       # number of ReadReq accesses(hits+misses)
system.cpu.dcache.ReadReq_accesses::total     21431835                       # number of ReadReq accesses(hits+misses)
system.cpu.dcache.ReadReq_miss_rate::.cpu.data     0.001467                       # miss rate for ReadReq accesses
system.cpu.dcache.ReadReq_miss_rate::total     0.001467                       # miss rate for ReadReq accesses
system.cpu.dcache.ReadReq_avg_miss_latency::.cpu.data 31970.151390                       # average ReadReq miss latency
system.cpu.dcache.ReadReq_avg_miss_latency::total 31970.151390                       # average ReadReq miss latency
system.cpu.dcache.ReadReq_mshr_hits::.cpu.data         6738                       # number of ReadReq MSHR hits
system.cpu.dcache.ReadReq_mshr_hits::total         6738                       # number of ReadReq MSHR hits
system.cpu.dcache.ReadReq_mshr_misses::.cpu.data        24704                       # number of ReadReq MSHR misses
system.cpu.dcache.ReadReq_mshr_misses::total        24704                       # number of ReadReq MSHR misses
system.cpu.dcache.ReadReq_mshr_miss_latency::.cpu.data    875430500                       # number of ReadReq MSHR miss cycles
system.cpu.dcache.ReadReq_mshr_miss_latency::total    875430500                       # number of ReadReq MSHR miss cycles
system.cpu.dcache.ReadReq_mshr_miss_rate::.cpu.data     0.001153                       # mshr miss rate for ReadReq accesses
system.cpu.dcache.ReadReq_mshr_miss_rate::total     0.001153                       # mshr miss rate for ReadReq accesses
system.cpu.dcache.ReadReq_avg_mshr_miss_latency::.cpu.data 35436.791613                       # average ReadReq mshr miss latency
system.cpu.dcache.ReadReq_avg_mshr_miss_latency::total 35436.791613                       # average ReadReq mshr miss latency
system.cpu.dcache.WriteReq_hits::.cpu.data     14198481                       # number of WriteReq hits
system.cpu.dcache.WriteReq_hits::total       14198481                       # number of WriteReq hits
system.cpu.dcache.WriteReq_misses::.cpu.data        55787                       # number of WriteReq misses
system.cpu.dcache.WriteReq_misses::total        55787                       # number of WriteReq misses
system.cpu.dcache.WriteReq_miss_latency::.cpu.data   4439210500                       # number of WriteReq miss cycles
system.cpu.dcache.WriteReq_miss_latency::total   4439210500                       # number of WriteReq miss cycles
system.cpu.dcache.WriteReq_accesses::.cpu.data     14254268                       # number of WriteReq accesses(hits+misses)
system.cpu.dcache.WriteReq_accesses::total     14254268                       # number of WriteReq accesses(hits+misses)
system.cpu.dcache.WriteReq_miss_rate::.cpu.data     0.003914                       # miss rate for WriteReq accesses
system.cpu.dcache.WriteReq_miss_rate::total     0.003914                       # miss rate for WriteReq accesses
system.cpu.dcache.WriteReq_avg_miss_latency::.cpu.data 79574.282539                       # average WriteReq miss latency
system.cpu.dcache.WriteReq_avg_miss_latency::total 79574.282539                       # average WriteReq miss latency
system.cpu.dcache.WriteReq_mshr_hits::.cpu.data        16741                       # number of WriteReq MSHR hits
system.cpu.dcache.WriteReq_mshr_hits::total        16741                       # number of WriteReq MSHR hits
system.cpu.dcache.WriteReq_mshr_misses::.cpu.data        39046                       # number of WriteReq MSHR misses
system.cpu.dcache.WriteReq_mshr_misses::total        39046                       # number of WriteReq MSHR misses
system.cpu.dcache.WriteReq_mshr_miss_latency::.cpu.data   3329799000                       # number of WriteReq MSHR miss cycles
system.cpu.dcache.WriteReq_mshr_miss_latency::total   3329799000                       # number of WriteReq MSHR miss cycles
system.cpu.dcache.WriteReq_mshr_miss_rate::.cpu.data     0.002739                       # mshr miss rate for WriteReq accesses
system.cpu.dcache.WriteReq_mshr_miss_rate::total     0.002739                       # mshr miss rate for WriteReq accesses
system.cpu.dcache.WriteReq_avg_mshr_miss_latency::.cpu.data 85278.876197                       # average WriteReq mshr miss latency
system.cpu.dcache.WriteReq_avg_mshr_miss_latency::total 85278.876197                       # average WriteReq mshr miss latency
system.cpu.dcache.SoftPFReq_hits::.cpu.data         3299                       # number of SoftPFReq hits
system.cpu.dcache.SoftPFReq_hits::total          3299                       # number of SoftPFReq hits
system.cpu.dcache.SoftPFReq_misses::.cpu.data           62                       # number of SoftPFReq misses
system.cpu.dcache.SoftPFReq_misses::total           62                       # number of SoftPFReq misses
system.cpu.dcache.SoftPFReq_accesses::.cpu.data         3361                       # number of SoftPFReq accesses(hits+misses)
system.cpu.dcache.SoftPFReq_accesses::total         3361                       # number of SoftPFReq accesses(hits+misses)
system.cpu.dcache.SoftPFReq_miss_rate::.cpu.data     0.018447                       # miss rate for SoftPFReq accesses
system.cpu.dcache.SoftPFReq_miss_rate::total     0.018447                       # miss rate for SoftPFReq accesses
system.cpu.dcache.SoftPFReq_mshr_misses::.cpu.data           57                       # number of SoftPFReq MSHR misses
system.cpu.dcache.SoftPFReq_mshr_misses::total           57                       # number of SoftPFReq MSHR misses
system.cpu.dcache.SoftPFReq_mshr_miss_latency::.cpu.data      2027500                       # number of SoftPFReq MSHR miss cycles
system.cpu.dcache.SoftPFReq_mshr_miss_latency::total      2027500                       # number of SoftPFReq MSHR miss cycles
system.cpu.dcache.SoftPFReq_mshr_miss_rate::.cpu.data     0.016959                       # mshr miss rate for SoftPFReq accesses
system.cpu.dcache.SoftPFReq_mshr_miss_rate::total     0.016959                       # mshr miss rate for SoftPFReq accesses
system.cpu.dcache.SoftPFReq_avg_mshr_miss_latency::.cpu.data 35570.175439                       # average SoftPFReq mshr miss latency
system.cpu.dcache.SoftPFReq_avg_mshr_miss_latency::total 35570.175439                       # average SoftPFReq mshr miss latency
system.cpu.dcache.LoadLockedReq_hits::.cpu.data        89080                       # number of LoadLockedReq hits
system.cpu.dcache.LoadLockedReq_hits::total        89080                       # number of LoadLockedReq hits
system.cpu.dcache.LoadLockedReq_accesses::.cpu.data        89080                       # number of LoadLockedReq accesses(hits+misses)
system.cpu.dcache.LoadLockedReq_accesses::total        89080                       # number of LoadLockedReq accesses(hits+misses)
system.cpu.dcache.StoreCondReq_hits::.cpu.data        89080                       # number of StoreCondReq hits
system.cpu.dcache.StoreCondReq_hits::total        89080                       # number of StoreCondReq hits
system.cpu.dcache.StoreCondReq_accesses::.cpu.data        89080                       # number of StoreCondReq accesses(hits+misses)
system.cpu.dcache.StoreCondReq_accesses::total        89080                       # number of StoreCondReq accesses(hits+misses)
system.cpu.dcache.power_state.pwrStateResidencyTicks::UNDEFINED  57687202500                       # Cumulative time (in ticks) in various power states
system.cpu.dcache.tags.tagsinuse           511.112939                       # Cycle average of tags in use
system.cpu.dcache.tags.total_refs            35844140                       # Total number of references to valid blocks.
system.cpu.dcache.tags.sampled_refs             63807                       # Sample count of references to valid blocks.
system.cpu.dcache.tags.avg_refs            561.758741                       # Average number of references to valid blocks.
system.cpu.dcache.tags.warmup_cycle            176500                       # Cycle when the warmup percentage was hit.
system.cpu.dcache.tags.occ_blocks::.cpu.data   511.112939                       # Average occupied blocks per requestor
system.cpu.dcache.tags.occ_percent::.cpu.data     0.998267                       # Average percentage of cache occupancy
system.cpu.dcache.tags.occ_percent::total     0.998267                       # Average percentage of cache occupancy
system.cpu.dcache.tags.occ_task_id_blocks::1024          512                       # Occupied blocks per task id
system.cpu.dcache.tags.age_task_id_blocks_1024::0            7                       # Occupied blocks per task id
system.cpu.dcache.tags.age_task_id_blocks_1024::1           64                       # Occupied blocks per task id
system.cpu.dcache.tags.age_task_id_blocks_1024::2          361                       # Occupied blocks per task id
system.cpu.dcache.tags.age_task_id_blocks_1024::3           56                       # Occupied blocks per task id
system.cpu.dcache.tags.age_task_id_blocks_1024::4           24                       # Occupied blocks per task id
system.cpu.dcache.tags.occ_task_id_percent::1024            1                       # Percentage of cache occupancy per task id
system.cpu.dcache.tags.tag_accesses          71799055                       # Number of tag accesses
system.cpu.dcache.tags.data_accesses         71799055                       # Number of data accesses
system.cpu.dcache.tags.power_state.pwrStateResidencyTicks::UNDEFINED  57687202500                       # Cumulative time (in ticks) in various power states
system.cpu.dtb.instHits                             0                       # ITB inst hits
system.cpu.dtb.instMisses                           0                       # ITB inst misses
system.cpu.dtb.readHits                             0                       # DTB read hits
system.cpu.dtb.readMisses                           0                       # DTB read misses
system.cpu.dtb.writeHits                            0                       # DTB write hits
system.cpu.dtb.writeMisses                          0                       # DTB write misses
system.cpu.dtb.inserts                              0                       # Number of times an entry is inserted into the TLB
system.cpu.dtb.flushTlb                             0                       # Number of times complete TLB was flushed
system.cpu.dtb.flushTlbMva                          0                       # Number of times TLB was flushed by MVA
system.cpu.dtb.flushTlbMvaAsid                      0                       # Number of times TLB was flushed by MVA & ASID
system.cpu.dtb.flushTlbAsid                         0                       # Number of times TLB was flushed by ASID
system.cpu.dtb.flushedEntries                       0                       # Number of entries that have been flushed from TLB
system.cpu.dtb.alignFaults                          0                       # Number of TLB faults due to alignment restrictions
system.cpu.dtb.prefetchFaults                       0                       # Number of TLB faults due to prefetch
system.cpu.dtb.domainFaults                         0                       # Number of TLB faults due to domain restrictions
system.cpu.dtb.permsFaults                          0                       # Number of TLB faults due to permissions restrictions
system.cpu.dtb.readAccesses                         0                       # DTB read accesses
system.cpu.dtb.writeAccesses                        0                       # DTB write accesses
system.cpu.dtb.instAccesses                         0                       # ITB inst accesses
system.cpu.dtb.hits                                 0                       # Total TLB (inst and data) hits
system.cpu.dtb.misses                               0                       # Total TLB (inst and data) misses
system.cpu.dtb.accesses                             0                       # Total TLB (inst and data) accesses
system.cpu.dtb.stage2_mmu.stage2_tlb.instHits            0                       # ITB inst hits
system.cpu.dtb.stage2_mmu.stage2_tlb.instMisses            0                       # ITB inst misses
system.cpu.dtb.stage2_mmu.stage2_tlb.readHits            0                       # DTB read hits
system.cpu.dtb.stage2_mmu.stage2_tlb.readMisses            0                       # DTB read misses
system.cpu.dtb.stage2_mmu.stage2_tlb.writeHits            0                       # DTB write hits
system.cpu.dtb.stage2_mmu.stage2_tlb.writeMisses            0                       # DTB write misses
system.cpu.dtb.stage2_mmu.stage2_tlb.inserts            0                       # Number of times an entry is inserted into the TLB
system.cpu.dtb.stage2_mmu.stage2_tlb.flushTlb            0                       # Number of times complete TLB was flushed
system.cpu.dtb.stage2_mmu.stage2_tlb.flushTlbMva            0                       # Number of times TLB was flushed by MVA
system.cpu.dtb.stage2_mmu.stage2_tlb.flushTlbMvaAsid            0                       # Number of times TLB was flushed by MVA & ASID
system.cpu.dtb.stage2_mmu.stage2_tlb.flushTlbAsid            0                       # Number of times TLB was flushed by ASID
system.cpu.dtb.stage2_mmu.stage2_tlb.flushedEntries            0                       # Number of entries that have been flushed from TLB
system.cpu.dtb.stage2_mmu.stage2_tlb.alignFaults            0                       # Number of TLB faults due to alignment restrictions
system.cpu.dtb.stage2_mmu.stage2_tlb.prefetchFaults            0                       # Number of TLB faults due to prefetch
system.cpu.dtb.stage2_mmu.stage2_tlb.domainFaults            0                       # Number of TLB faults due to domain restrictions
system.cpu.dtb.stage2_mmu.stage2_tlb.permsFaults            0                       # Number of TLB faults due to permissions restrictions
system.cpu.dtb.stage2_mmu.stage2_tlb.readAccesses            0                       # DTB read accesses
system.cpu.dtb.stage2_mmu.stage2_tlb.writeAccesses            0                       # DTB write accesses
system.cpu.dtb.stage2_mmu.stage2_tlb.instAccesses            0                       # ITB inst accesses
system.cpu.dtb.stage2_mmu.stage2_tlb.hits            0                       # Total TLB (inst and data) hits
system.cpu.dtb.stage2_mmu.stage2_tlb.misses            0                       # Total TLB (inst and data) misses
system.cpu.dtb.stage2_mmu.stage2_tlb.accesses            0                       # Total TLB (inst and data) accesses
system.cpu.dtb.stage2_mmu.stage2_tlb.walker.walks            0                       # Table walker walks requested
system.cpu.dtb.stage2_mmu.stage2_tlb.walker.requestOrigin_Requested::Data            0                       # Table walker requests started/completed, data/inst
system.cpu.dtb.stage2_mmu.stage2_tlb.walker.requestOrigin_Requested::Inst            0                       # Table walker requests started/completed, data/inst
system.cpu.dtb.stage2_mmu.stage2_tlb.walker.requestOrigin_Requested::total            0                       # Table walker requests started/completed, data/inst
system.cpu.dtb.stage2_mmu.stage2_tlb.walker.requestOrigin_Completed::Data            0                       # Table walker requests started/completed, data/inst
system.cpu.dtb.stage2_mmu.stage2_tlb.walker.requestOrigin_Completed::Inst            0                       # Table walker requests started/completed, data/inst
system.cpu.dtb.stage2_mmu.stage2_tlb.walker.requestOrigin_Completed::total            0                       # Table walker requests started/completed, data/inst
system.cpu.dtb.stage2_mmu.stage2_tlb.walker.requestOrigin::total            0                       # Table walker requests started/completed, data/inst
system.cpu.dtb.stage2_mmu.stage2_tlb.walker.power_state.pwrStateResidencyTicks::UNDEFINED  57687202500                       # Cumulative time (in ticks) in various power states
system.cpu.dtb.walker.walks                         0                       # Table walker walks requested
system.cpu.dtb.walker.requestOrigin_Requested::Data            0                       # Table walker requests started/completed, data/inst
system.cpu.dtb.walker.requestOrigin_Requested::Inst            0                       # Table walker requests started/completed, data/inst
system.cpu.dtb.walker.requestOrigin_Requested::total            0                       # Table walker requests started/completed, data/inst
system.cpu.dtb.walker.requestOrigin_Completed::Data            0                       # Table walker requests started/completed, data/inst
system.cpu.dtb.walker.requestOrigin_Completed::Inst            0                       # Table walker requests started/completed, data/inst
system.cpu.dtb.walker.requestOrigin_Completed::total            0                       # Table walker requests started/completed, data/inst
system.cpu.dtb.walker.requestOrigin::total            0                       # Table walker requests started/completed, data/inst
system.cpu.dtb.walker.power_state.pwrStateResidencyTicks::UNDEFINED  57687202500                       # Cumulative time (in ticks) in various power states
system.cpu.fetch2.intInstructions            49238961                       # Number of integer instructions successfully decoded
system.cpu.fetch2.fpInstructions                    0                       # Number of floating point instructions successfully decoded
system.cpu.fetch2.vecInstructions                   0                       # Number of SIMD instructions successfully decoded
system.cpu.fetch2.loadInstructions           17106649                       # Number of memory load instructions successfully decoded
system.cpu.fetch2.storeInstructions           9764082                       # Number of memory store instructions successfully decoded
system.cpu.fetch2.amoInstructions                   0                       # Number of memory atomic instructions successfully decoded
system.cpu.icache.demand_hits::.cpu.inst     28361896                       # number of demand (read+write) hits
system.cpu.icache.demand_hits::total         28361896                       # number of demand (read+write) hits
system.cpu.icache.overall_hits::.cpu.inst     28361896                       # number of overall hits
system.cpu.icache.overall_hits::total        28361896                       # number of overall hits
system.cpu.icache.demand_misses::.cpu.inst          770                       # number of demand (read+write) misses
system.cpu.icache.demand_misses::total            770                       # number of demand (read+write) misses
system.cpu.icache.overall_misses::.cpu.inst          770                       # number of overall misses
system.cpu.icache.overall_misses::total           770                       # number of overall misses
system.cpu.icache.demand_miss_latency::.cpu.inst     44225500                       # number of demand (read+write) miss cycles
system.cpu.icache.demand_miss_latency::total     44225500                       # number of demand (read+write) miss cycles
system.cpu.icache.overall_miss_latency::.cpu.inst     44225500                       # number of overall miss cycles
system.cpu.icache.overall_miss_latency::total     44225500                       # number of overall miss cycles
system.cpu.icache.demand_accesses::.cpu.inst     28362666                       # number of demand (read+write) accesses
system.cpu.icache.demand_accesses::total     28362666                       # number of demand (read+write) accesses
system.cpu.icache.overall_accesses::.cpu.inst     28362666                       # number of overall (read+write) accesses
system.cpu.icache.overall_accesses::total     28362666                       # number of overall (read+write) accesses
system.cpu.icache.demand_miss_rate::.cpu.inst     0.000027                       # miss rate for demand accesses
system.cpu.icache.demand_miss_rate::total     0.000027                       # miss rate for demand accesses
system.cpu.icache.overall_miss_rate::.cpu.inst     0.000027                       # miss rate for overall accesses
system.cpu.icache.overall_miss_rate::total     0.000027                       # miss rate for overall accesses
system.cpu.icache.demand_avg_miss_latency::.cpu.inst 57435.714286                       # average overall miss latency
system.cpu.icache.demand_avg_miss_latency::total 57435.714286                       # average overall miss latency
system.cpu.icache.overall_avg_miss_latency::.cpu.inst 57435.714286                       # average overall miss latency
system.cpu.icache.overall_avg_miss_latency::total 57435.714286                       # average overall miss latency
system.cpu.icache.blocked_cycles::no_mshrs            0                       # number of cycles access was blocked
system.cpu.icache.blocked_cycles::no_targets            0                       # number of cycles access was blocked
system.cpu.icache.blocked::no_mshrs                 0                       # number of cycles access was blocked
system.cpu.icache.blocked::no_targets               0                       # number of cycles access was blocked
system.cpu.icache.avg_blocked_cycles::no_mshrs          nan                       # average number of cycles each access was blocked
system.cpu.icache.avg_blocked_cycles::no_targets          nan                       # average number of cycles each access was blocked
system.cpu.icache.writebacks::.writebacks          314                       # number of writebacks
system.cpu.icache.writebacks::total               314                       # number of writebacks
system.cpu.icache.demand_mshr_misses::.cpu.inst          770                       # number of demand (read+write) MSHR misses
system.cpu.icache.demand_mshr_misses::total          770                       # number of demand (read+write) MSHR misses
system.cpu.icache.overall_mshr_misses::.cpu.inst          770                       # number of overall MSHR misses
system.cpu.icache.overall_mshr_misses::total          770                       # number of overall MSHR misses
system.cpu.icache.demand_mshr_miss_latency::.cpu.inst     43455500                       # number of demand (read+write) MSHR miss cycles
system.cpu.icache.demand_mshr_miss_latency::total     43455500                       # number of demand (read+write) MSHR miss cycles
system.cpu.icache.overall_mshr_miss_latency::.cpu.inst     43455500                       # number of overall MSHR miss cycles
system.cpu.icache.overall_mshr_miss_latency::total     43455500                       # number of overall MSHR miss cycles
system.cpu.icache.demand_mshr_miss_rate::.cpu.inst     0.000027                       # mshr miss rate for demand accesses
system.cpu.icache.demand_mshr_miss_rate::total     0.000027                       # mshr miss rate for demand accesses
system.cpu.icache.overall_mshr_miss_rate::.cpu.inst     0.000027                       # mshr miss rate for overall accesses
system.cpu.icache.overall_mshr_miss_rate::total     0.000027                       # mshr miss rate for overall accesses
system.cpu.icache.demand_avg_mshr_miss_latency::.cpu.inst 56435.714286                       # average overall mshr miss latency
system.cpu.icache.demand_avg_mshr_miss_latency::total 56435.714286                       # average overall mshr miss latency
system.cpu.icache.overall_avg_mshr_miss_latency::.cpu.inst 56435.714286                       # average overall mshr miss latency
system.cpu.icache.overall_avg_mshr_miss_latency::total 56435.714286                       # average overall mshr miss latency
system.cpu.icache.replacements                    314                       # number of replacements
system.cpu.icache.ReadReq_hits::.cpu.inst     28361896                       # number of ReadReq hits
system.cpu.icache.ReadReq_hits::total        28361896                       # number of ReadReq hits
system.cpu.icache.ReadReq_misses::.cpu.inst          770                       # number of ReadReq misses
system.cpu.icache.ReadReq_misses::total           770                       # number of ReadReq misses
system.cpu.icache.ReadReq_miss_latency::.cpu.inst     44225500                       # number of ReadReq miss cycles
system.cpu.icache.ReadReq_miss_latency::total     44225500                       # number of ReadReq miss cycles
system.cpu.icache.ReadReq_accesses::.cpu.inst     28362666                       # number of ReadReq accesses(hits+misses)
system.cpu.icache.ReadReq_accesses::total     28362666                       # number of ReadReq accesses(hits+misses)
system.cpu.icache.ReadReq_miss_rate::.cpu.inst     0.000027                       # miss rate for ReadReq accesses
system.cpu.icache.ReadReq_miss_rate::total     0.000027                       # miss rate for ReadReq accesses
system.cpu.icache.ReadReq_avg_miss_latency::.cpu.inst 57435.714286                       # average ReadReq miss latency
system.cpu.icache.ReadReq_avg_miss_latency::total 57435.714286                       # average ReadReq miss latency
system.cpu.icache.ReadReq_mshr_misses::.cpu.inst          770                       # number of ReadReq MSHR misses
system.cpu.icache.ReadReq_mshr_misses::total          770                       # number of ReadReq MSHR misses
system.cpu.icache.ReadReq_mshr_miss_latency::.cpu.inst     43455500                       # number of ReadReq MSHR miss cycles
system.cpu.icache.ReadReq_mshr_miss_latency::total     43455500                       # number of ReadReq MSHR miss cycles
system.cpu.icache.ReadReq_mshr_miss_rate::.cpu.inst     0.000027                       # mshr miss rate for ReadReq accesses
system.cpu.icache.ReadReq_mshr_miss_rate::total     0.000027                       # mshr miss rate for ReadReq accesses
system.cpu.icache.ReadReq_avg_mshr_miss_latency::.cpu.inst 56435.714286                       # average ReadReq mshr miss latency
system.cpu.icache.ReadReq_avg_mshr_miss_latency::total 56435.714286                       # average ReadReq mshr miss latency
system.cpu.icache.power_state.pwrStateResidencyTicks::UNDEFINED  57687202500                       # Cumulative time (in ticks) in various power states
system.cpu.icache.tags.tagsinuse           455.244751                       # Cycle average of tags in use
system.cpu.icache.tags.total_refs            28362666                       # Total number of references to valid blocks.
system.cpu.icache.tags.sampled_refs               770                       # Sample count of references to valid blocks.
system.cpu.icache.tags.avg_refs          36834.631169                       # Average number of references to valid blocks.
system.cpu.icache.tags.warmup_cycle             87500                       # Cycle when the warmup percentage was hit.
system.cpu.icache.tags.occ_blocks::.cpu.inst   455.244751                       # Average occupied blocks per requestor
system.cpu.icache.tags.occ_percent::.cpu.inst     0.444575                       # Average percentage of cache occupancy
system.cpu.icache.tags.occ_percent::total     0.444575                       # Average percentage of cache occupancy
system.cpu.icache.tags.occ_task_id_blocks::1024          456                       # Occupied blocks per task id
system.cpu.icache.tags.age_task_id_blocks_1024::2            1                       # Occupied blocks per task id
system.cpu.icache.tags.age_task_id_blocks_1024::4          455                       # Occupied blocks per task id
system.cpu.icache.tags.occ_task_id_percent::1024     0.445312                       # Percentage of cache occupancy per task id
system.cpu.icache.tags.tag_accesses          28363436                       # Number of tag accesses
system.cpu.icache.tags.data_accesses         28363436                       # Number of data accesses
system.cpu.icache.tags.power_state.pwrStateResidencyTicks::UNDEFINED  57687202500                       # Cumulative time (in ticks) in various power states
system.cpu.itb.instHits                             0                       # ITB inst hits
system.cpu.itb.instMisses                           0                       # ITB inst misses
system.cpu.itb.readHits                             0                       # DTB read hits
system.cpu.itb.readMisses                           0                       # DTB read misses
system.cpu.itb.writeHits                            0                       # DTB write hits
system.cpu.itb.writeMisses                          0                       # DTB write misses
system.cpu.itb.inserts                              0                       # Number of times an entry is inserted into the TLB
system.cpu.itb.flushTlb                             0                       # Number of times complete TLB was flushed
system.cpu.itb.flushTlbMva                          0                       # Number of times TLB was flushed by MVA
system.cpu.itb.flushTlbMvaAsid                      0                       # Number of times TLB was flushed by MVA & ASID
system.cpu.itb.flushTlbAsid                         0                       # Number of times TLB was flushed by ASID
system.cpu.itb.flushedEntries                       0                       # Number of entries that have been flushed from TLB
system.cpu.itb.alignFaults                          0                       # Number of TLB faults due to alignment restrictions
system.cpu.itb.prefetchFaults                       0                       # Number of TLB faults due to prefetch
system.cpu.itb.domainFaults                         0                       # Number of TLB faults due to domain restrictions
system.cpu.itb.permsFaults                          0                       # Number of TLB faults due to permissions restrictions
system.cpu.itb.readAccesses                         0                       # DTB read accesses
system.cpu.itb.writeAccesses                        0                       # DTB write accesses
system.cpu.itb.instAccesses                         0                       # ITB inst accesses
system.cpu.itb.hits                                 0                       # Total TLB (inst and data) hits
system.cpu.itb.misses                               0                       # Total TLB (inst and data) misses
system.cpu.itb.accesses                             0                       # Total TLB (inst and data) accesses
system.cpu.itb.stage2_mmu.stage2_tlb.instHits            0                       # ITB inst hits
system.cpu.itb.stage2_mmu.stage2_tlb.instMisses            0                       # ITB inst misses
system.cpu.itb.stage2_mmu.stage2_tlb.readHits            0                       # DTB read hits
system.cpu.itb.stage2_mmu.stage2_tlb.readMisses            0                       # DTB read misses
system.cpu.itb.stage2_mmu.stage2_tlb.writeHits            0                       # DTB write hits
system.cpu.itb.stage2_mmu.stage2_tlb.writeMisses            0                       # DTB write misses
system.cpu.itb.stage2_mmu.stage2_tlb.inserts            0                       # Number of times an entry is inserted into the TLB
system.cpu.itb.stage2_mmu.stage2_tlb.flushTlb            0                       # Number of times complete TLB was flushed
system.cpu.itb.stage2_mmu.stage2_tlb.flushTlbMva            0                       # Number of times TLB was flushed by MVA
system.cpu.itb.stage2_mmu.stage2_tlb.flushTlbMvaAsid            0                       # Number of times TLB was flushed by MVA & ASID
system.cpu.itb.stage2_mmu.stage2_tlb.flushTlbAsid            0                       # Number of times TLB was flushed by ASID
system.cpu.itb.stage2_mmu.stage2_tlb.flushedEntries            0                       # Number of entries that have been flushed from TLB
system.cpu.itb.stage2_mmu.stage2_tlb.alignFaults            0                       # Number of TLB faults due to alignment restrictions
system.cpu.itb.stage2_mmu.stage2_tlb.prefetchFaults            0                       # Number of TLB faults due to prefetch
system.cpu.itb.stage2_mmu.stage2_tlb.domainFaults            0                       # Number of TLB faults due to domain restrictions
system.cpu.itb.stage2_mmu.stage2_tlb.permsFaults            0                       # Number of TLB faults due to permissions restrictions
system.cpu.itb.stage2_mmu.stage2_tlb.readAccesses            0                       # DTB read accesses
system.cpu.itb.stage2_mmu.stage2_tlb.writeAccesses            0                       # DTB write accesses
system.cpu.itb.stage2_mmu.stage2_tlb.instAccesses            0                       # ITB inst accesses
system.cpu.itb.stage2_mmu.stage2_tlb.hits            0                       # Total TLB (inst and data) hits
system.cpu.itb.stage2_mmu.stage2_tlb.misses            0                       # Total TLB (inst and data) misses
system.cpu.itb.stage2_mmu.stage2_tlb.accesses            0                       # Total TLB (inst and data) accesses
system.cpu.itb.stage2_mmu.stage2_tlb.walker.walks            0                       # Table walker walks requested
system.cpu.itb.stage2_mmu.stage2_tlb.walker.requestOrigin_Requested::Data            0                       # Table walker requests started/completed, data/inst
system.cpu.itb.stage2_mmu.stage2_tlb.walker.requestOrigin_Requested::Inst            0                       # Table walker requests started/completed, data/inst
system.cpu.itb.stage2_mmu.stage2_tlb.walker.requestOrigin_Requested::total            0                       # Table walker requests started/completed, data/inst
system.cpu.itb.stage2_mmu.stage2_tlb.walker.requestOrigin_Completed::Data            0                       # Table walker requests started/completed, data/inst
system.cpu.itb.stage2_mmu.stage2_tlb.walker.requestOrigin_Completed::Inst            0                       # Table walker requests started/completed, data/inst
system.cpu.itb.stage2_mmu.stage2_tlb.walker.requestOrigin_Completed::total            0                       # Table walker requests started/completed, data/inst
system.cpu.itb.stage2_mmu.stage2_tlb.walker.requestOrigin::total            0                       # Table walker requests started/completed, data/inst
system.cpu.itb.stage2_mmu.stage2_tlb.walker.power_state.pwrStateResidencyTicks::UNDEFINED  57687202500                       # Cumulative time (in ticks) in various power states
system.cpu.itb.walker.walks                         0                       # Table walker walks requested
system.cpu.itb.walker.requestOrigin_Requested::Data            0                       # Table walker requests started/completed, data/inst
system.cpu.itb.walker.requestOrigin_Requested::Inst            0                       # Table walker requests started/completed, data/inst
system.cpu.itb.walker.requestOrigin_Requested::total            0                       # Table walker requests started/completed, data/inst
system.cpu.itb.walker.requestOrigin_Completed::Data            0                       # Table walker requests started/completed, data/inst
system.cpu.itb.walker.requestOrigin_Completed::Inst            0                       # Table walker requests started/completed, data/inst
system.cpu.itb.walker.requestOrigin_Completed::total            0                       # Table walker requests started/completed, data/inst
system.cpu.itb.walker.requestOrigin::total            0                       # Table walker requests started/completed, data/inst
system.cpu.itb.walker.power_state.pwrStateResidencyTicks::UNDEFINED  57687202500                       # Cumulative time (in ticks) in various power states
system.cpu.power_state.pwrStateResidencyTicks::ON  57687202500                       # Cumulative time (in ticks) in various power states
system.cpu.thread0.numInsts                 100000001                       # Number of Instructions committed
system.cpu.thread0.numOps                   109431277                       # Number of Ops committed
system.cpu.thread0.numMemRefs                       0                       # Number of Memory References
system.cpu_clk_domain.clock                       500                       # Clock period in ticks
system.cpu_voltage_domain.voltage                   1                       # Voltage in Volts
system.l2.demand_hits::.cpu.inst                  249                       # number of demand (read+write) hits
system.l2.demand_hits::.cpu.data                17833                       # number of demand (read+write) hits
system.l2.demand_hits::total                    18082                       # number of demand (read+write) hits
system.l2.overall_hits::.cpu.inst                 249                       # number of overall hits
system.l2.overall_hits::.cpu.data               17833                       # number of overall hits
system.l2.overall_hits::total                   18082                       # number of overall hits
system.l2.demand_misses::.cpu.inst                521                       # number of demand (read+write) misses
system.l2.demand_misses::.cpu.data              45974                       # number of demand (read+write) misses
system.l2.demand_misses::total                  46495                       # number of demand (read+write) misses
system.l2.overall_misses::.cpu.inst               521                       # number of overall misses
system.l2.overall_misses::.cpu.data             45974                       # number of overall misses
system.l2.overall_misses::total                 46495                       # number of overall misses
system.l2.demand_miss_latency::.cpu.inst     39679500                       # number of demand (read+write) miss cycles
system.l2.demand_miss_latency::.cpu.data   3924200500                       # number of demand (read+write) miss cycles
system.l2.demand_miss_latency::total       3963880000                       # number of demand (read+write) miss cycles
system.l2.overall_miss_latency::.cpu.inst     39679500                       # number of overall miss cycles
system.l2.overall_miss_latency::.cpu.data   3924200500                       # number of overall miss cycles
system.l2.overall_miss_latency::total      3963880000                       # number of overall miss cycles
system.l2.demand_accesses::.cpu.inst              770                       # number of demand (read+write) accesses
system.l2.demand_accesses::.cpu.data            63807                       # number of demand (read+write) accesses
system.l2.demand_accesses::total                64577                       # number of demand (read+write) accesses
system.l2.overall_accesses::.cpu.inst             770                       # number of overall (read+write) accesses
system.l2.overall_accesses::.cpu.data           63807                       # number of overall (read+write) accesses
system.l2.overall_accesses::total               64577                       # number of overall (read+write) accesses
system.l2.demand_miss_rate::.cpu.inst        0.676623                       # miss rate for demand accesses
system.l2.demand_miss_rate::.cpu.data        0.720517                       # miss rate for demand accesses
system.l2.demand_miss_rate::total            0.719993                       # miss rate for demand accesses
system.l2.overall_miss_rate::.cpu.inst       0.676623                       # miss rate for overall accesses
system.l2.overall_miss_rate::.cpu.data       0.720517                       # miss rate for overall accesses
system.l2.overall_miss_rate::total           0.719993                       # miss rate for overall accesses
system.l2.demand_avg_miss_latency::.cpu.inst 76160.268714                       # average overall miss latency
system.l2.demand_avg_miss_latency::.cpu.data 85356.951755                       # average overall miss latency
system.l2.demand_avg_miss_latency::total 85253.898269                       # average overall miss latency
system.l2.overall_avg_miss_latency::.cpu.inst 76160.268714                       # average overall miss latency
system.l2.overall_avg_miss_latency::.cpu.data 85356.951755                       # average overall miss latency
system.l2.overall_avg_miss_latency::total 85253.898269                       # average overall miss latency
system.l2.blocked_cycles::no_mshrs                  0                       # number of cycles access was blocked
system.l2.blocked_cycles::no_targets                0                       # number of cycles access was blocked
system.l2.blocked::no_mshrs                         0                       # number of cycles access was blocked
system.l2.blocked::no_targets                       0                       # number of cycles access was blocked
system.l2.avg_blocked_cycles::no_mshrs            nan                       # average number of cycles each access was blocked
system.l2.avg_blocked_cycles::no_targets          nan                       # average number of cycles each access was blocked
system.l2.writebacks::.writebacks               37607                       # number of writebacks
system.l2.writebacks::total                     37607                       # number of writebacks
system.l2.demand_mshr_hits::.cpu.inst               1                       # number of demand (read+write) MSHR hits
system.l2.demand_mshr_hits::.cpu.data               5                       # number of demand (read+write) MSHR hits
system.l2.demand_mshr_hits::total                   6                       # number of demand (read+write) MSHR hits
system.l2.overall_mshr_hits::.cpu.inst              1                       # number of overall MSHR hits
system.l2.overall_mshr_hits::.cpu.data              5                       # number of overall MSHR hits
system.l2.overall_mshr_hits::total                  6                       # number of overall MSHR hits
system.l2.demand_mshr_misses::.cpu.inst           520                       # number of demand (read+write) MSHR misses
system.l2.demand_mshr_misses::.cpu.data         45969                       # number of demand (read+write) MSHR misses
system.l2.demand_mshr_misses::total             46489                       # number of demand (read+write) MSHR misses
system.l2.overall_mshr_misses::.cpu.inst          520                       # number of overall MSHR misses
system.l2.overall_mshr_misses::.cpu.data        45969                       # number of overall MSHR misses
system.l2.overall_mshr_misses::total            46489                       # number of overall MSHR misses
system.l2.demand_mshr_miss_latency::.cpu.inst     34155000                       # number of demand (read+write) MSHR miss cycles
system.l2.demand_mshr_miss_latency::.cpu.data   3464185000                       # number of demand (read+write) MSHR miss cycles
system.l2.demand_mshr_miss_latency::total   3498340000                       # number of demand (read+write) MSHR miss cycles
system.l2.overall_mshr_miss_latency::.cpu.inst     34155000                       # number of overall MSHR miss cycles
system.l2.overall_mshr_miss_latency::.cpu.data   3464185000                       # number of overall MSHR miss cycles
system.l2.overall_mshr_miss_latency::total   3498340000                       # number of overall MSHR miss cycles
system.l2.demand_mshr_miss_rate::.cpu.inst     0.675325                       # mshr miss rate for demand accesses
system.l2.demand_mshr_miss_rate::.cpu.data     0.720438                       # mshr miss rate for demand accesses
system.l2.demand_mshr_miss_rate::total       0.719900                       # mshr miss rate for demand accesses
system.l2.overall_mshr_miss_rate::.cpu.inst     0.675325                       # mshr miss rate for overall accesses
system.l2.overall_mshr_miss_rate::.cpu.data     0.720438                       # mshr miss rate for overall accesses
system.l2.overall_mshr_miss_rate::total      0.719900                       # mshr miss rate for overall accesses
system.l2.demand_avg_mshr_miss_latency::.cpu.inst 65682.692308                       # average overall mshr miss latency
system.l2.demand_avg_mshr_miss_latency::.cpu.data 75359.155083                       # average overall mshr miss latency
system.l2.demand_avg_mshr_miss_latency::total 75250.919572                       # average overall mshr miss latency
system.l2.overall_avg_mshr_miss_latency::.cpu.inst 65682.692308                       # average overall mshr miss latency
system.l2.overall_avg_mshr_miss_latency::.cpu.data 75359.155083                       # average overall mshr miss latency
system.l2.overall_avg_mshr_miss_latency::total 75250.919572                       # average overall mshr miss latency
system.l2.replacements                          38449                       # number of replacements
system.l2.WritebackDirty_hits::.writebacks        54018                       # number of WritebackDirty hits
system.l2.WritebackDirty_hits::total            54018                       # number of WritebackDirty hits
system.l2.WritebackDirty_accesses::.writebacks        54018                       # number of WritebackDirty accesses(hits+misses)
system.l2.WritebackDirty_accesses::total        54018                       # number of WritebackDirty accesses(hits+misses)
system.l2.WritebackClean_hits::.writebacks          310                       # number of WritebackClean hits
system.l2.WritebackClean_hits::total              310                       # number of WritebackClean hits
system.l2.WritebackClean_accesses::.writebacks          310                       # number of WritebackClean accesses(hits+misses)
system.l2.WritebackClean_accesses::total          310                       # number of WritebackClean accesses(hits+misses)
system.l2.CleanEvict_mshr_misses::.writebacks           58                       # number of CleanEvict MSHR misses
system.l2.CleanEvict_mshr_misses::total            58                       # number of CleanEvict MSHR misses
system.l2.CleanEvict_mshr_miss_rate::.writebacks          inf                       # mshr miss rate for CleanEvict accesses
system.l2.CleanEvict_mshr_miss_rate::total          inf                       # mshr miss rate for CleanEvict accesses
system.l2.ReadExReq_hits::.cpu.data               236                       # number of ReadExReq hits
system.l2.ReadExReq_hits::total                   236                       # number of ReadExReq hits
system.l2.ReadExReq_misses::.cpu.data           38810                       # number of ReadExReq misses
system.l2.ReadExReq_misses::total               38810                       # number of ReadExReq misses
system.l2.ReadExReq_miss_latency::.cpu.data   3268718000                       # number of ReadExReq miss cycles
system.l2.ReadExReq_miss_latency::total    3268718000                       # number of ReadExReq miss cycles
system.l2.ReadExReq_accesses::.cpu.data         39046                       # number of ReadExReq accesses(hits+misses)
system.l2.ReadExReq_accesses::total             39046                       # number of ReadExReq accesses(hits+misses)
system.l2.ReadExReq_miss_rate::.cpu.data     0.993956                       # miss rate for ReadExReq accesses
system.l2.ReadExReq_miss_rate::total         0.993956                       # miss rate for ReadExReq accesses
system.l2.ReadExReq_avg_miss_latency::.cpu.data 84223.602164                       # average ReadExReq miss latency
system.l2.ReadExReq_avg_miss_latency::total 84223.602164                       # average ReadExReq miss latency
system.l2.ReadExReq_mshr_misses::.cpu.data        38810                       # number of ReadExReq MSHR misses
system.l2.ReadExReq_mshr_misses::total          38810                       # number of ReadExReq MSHR misses
system.l2.ReadExReq_mshr_miss_latency::.cpu.data   2880618000                       # number of ReadExReq MSHR miss cycles
system.l2.ReadExReq_mshr_miss_latency::total   2880618000                       # number of ReadExReq MSHR miss cycles
system.l2.ReadExReq_mshr_miss_rate::.cpu.data     0.993956                       # mshr miss rate for ReadExReq accesses
system.l2.ReadExReq_mshr_miss_rate::total     0.993956                       # mshr miss rate for ReadExReq accesses
system.l2.ReadExReq_avg_mshr_miss_latency::.cpu.data 74223.602164                       # average ReadExReq mshr miss latency
system.l2.ReadExReq_avg_mshr_miss_latency::total 74223.602164                       # average ReadExReq mshr miss latency
system.l2.ReadCleanReq_hits::.cpu.inst            249                       # number of ReadCleanReq hits
system.l2.ReadCleanReq_hits::total                249                       # number of ReadCleanReq hits
system.l2.ReadCleanReq_misses::.cpu.inst          521                       # number of ReadCleanReq misses
system.l2.ReadCleanReq_misses::total              521                       # number of ReadCleanReq misses
system.l2.ReadCleanReq_miss_latency::.cpu.inst     39679500                       # number of ReadCleanReq miss cycles
system.l2.ReadCleanReq_miss_latency::total     39679500                       # number of ReadCleanReq miss cycles
system.l2.ReadCleanReq_accesses::.cpu.inst          770                       # number of ReadCleanReq accesses(hits+misses)
system.l2.ReadCleanReq_accesses::total            770                       # number of ReadCleanReq accesses(hits+misses)
system.l2.ReadCleanReq_miss_rate::.cpu.inst     0.676623                       # miss rate for ReadCleanReq accesses
system.l2.ReadCleanReq_miss_rate::total      0.676623                       # miss rate for ReadCleanReq accesses
system.l2.ReadCleanReq_avg_miss_latency::.cpu.inst 76160.268714                       # average ReadCleanReq miss latency
system.l2.ReadCleanReq_avg_miss_latency::total 76160.268714                       # average ReadCleanReq miss latency
system.l2.ReadCleanReq_mshr_hits::.cpu.inst            1                       # number of ReadCleanReq MSHR hits
system.l2.ReadCleanReq_mshr_hits::total             1                       # number of ReadCleanReq MSHR hits
system.l2.ReadCleanReq_mshr_misses::.cpu.inst          520                       # number of ReadCleanReq MSHR misses
system.l2.ReadCleanReq_mshr_misses::total          520                       # number of ReadCleanReq MSHR misses
system.l2.ReadCleanReq_mshr_miss_latency::.cpu.inst     34155000                       # number of ReadCleanReq MSHR miss cycles
system.l2.ReadCleanReq_mshr_miss_latency::total     34155000                       # number of ReadCleanReq MSHR miss cycles
system.l2.ReadCleanReq_mshr_miss_rate::.cpu.inst     0.675325                       # mshr miss rate for ReadCleanReq accesses
system.l2.ReadCleanReq_mshr_miss_rate::total     0.675325                       # mshr miss rate for ReadCleanReq accesses
system.l2.ReadCleanReq_avg_mshr_miss_latency::.cpu.inst 65682.692308                       # average ReadCleanReq mshr miss latency
system.l2.ReadCleanReq_avg_mshr_miss_latency::total 65682.692308                       # average ReadCleanReq mshr miss latency
system.l2.ReadSharedReq_hits::.cpu.data         17597                       # number of ReadSharedReq hits
system.l2.ReadSharedReq_hits::total             17597                       # number of ReadSharedReq hits
system.l2.ReadSharedReq_misses::.cpu.data         7164                       # number of ReadSharedReq misses
system.l2.ReadSharedReq_misses::total            7164                       # number of ReadSharedReq misses
system.l2.ReadSharedReq_miss_latency::.cpu.data    655482500                       # number of ReadSharedReq miss cycles
system.l2.ReadSharedReq_miss_latency::total    655482500                       # number of ReadSharedReq miss cycles
system.l2.ReadSharedReq_accesses::.cpu.data        24761                       # number of ReadSharedReq accesses(hits+misses)
system.l2.ReadSharedReq_accesses::total         24761                       # number of ReadSharedReq accesses(hits+misses)
system.l2.ReadSharedReq_miss_rate::.cpu.data     0.289326                       # miss rate for ReadSharedReq accesses
system.l2.ReadSharedReq_miss_rate::total     0.289326                       # miss rate for ReadSharedReq accesses
system.l2.ReadSharedReq_avg_miss_latency::.cpu.data 91496.719710                       # average ReadSharedReq miss latency
system.l2.ReadSharedReq_avg_miss_latency::total 91496.719710                       # average ReadSharedReq miss latency
system.l2.ReadSharedReq_mshr_hits::.cpu.data            5                       # number of ReadSharedReq MSHR hits
system.l2.ReadSharedReq_mshr_hits::total            5                       # number of ReadSharedReq MSHR hits
system.l2.ReadSharedReq_mshr_misses::.cpu.data         7159                       # number of ReadSharedReq MSHR misses
system.l2.ReadSharedReq_mshr_misses::total         7159                       # number of ReadSharedReq MSHR misses
system.l2.ReadSharedReq_mshr_miss_latency::.cpu.data    583567000                       # number of ReadSharedReq MSHR miss cycles
system.l2.ReadSharedReq_mshr_miss_latency::total    583567000                       # number of ReadSharedReq MSHR miss cycles
system.l2.ReadSharedReq_mshr_miss_rate::.cpu.data     0.289124                       # mshr miss rate for ReadSharedReq accesses
system.l2.ReadSharedReq_mshr_miss_rate::total     0.289124                       # mshr miss rate for ReadSharedReq accesses
system.l2.ReadSharedReq_avg_mshr_miss_latency::.cpu.data 81515.155748                       # average ReadSharedReq mshr miss latency
system.l2.ReadSharedReq_avg_mshr_miss_latency::total 81515.155748                       # average ReadSharedReq mshr miss latency
system.l2.power_state.pwrStateResidencyTicks::UNDEFINED  57687202500                       # Cumulative time (in ticks) in various power states
system.l2.tags.tagsinuse                  7995.805810                       # Cycle average of tags in use
system.l2.tags.total_refs                      128082                       # Total number of references to valid blocks.
system.l2.tags.sampled_refs                     46641                       # Sample count of references to valid blocks.
system.l2.tags.avg_refs                      2.746125                       # Average number of references to valid blocks.
system.l2.tags.warmup_cycle                     77000                       # Cycle when the warmup percentage was hit.
system.l2.tags.occ_blocks::.writebacks      18.328996                       # Average occupied blocks per requestor
system.l2.tags.occ_blocks::.cpu.inst        26.133639                       # Average occupied blocks per requestor
system.l2.tags.occ_blocks::.cpu.data      7951.343176                       # Average occupied blocks per requestor
system.l2.tags.occ_percent::.writebacks      0.002237                       # Average percentage of cache occupancy
system.l2.tags.occ_percent::.cpu.inst        0.003190                       # Average percentage of cache occupancy
system.l2.tags.occ_percent::.cpu.data        0.970623                       # Average percentage of cache occupancy
system.l2.tags.occ_percent::total            0.976051                       # Average percentage of cache occupancy
system.l2.tags.occ_task_id_blocks::1024          8192                       # Occupied blocks per task id
system.l2.tags.age_task_id_blocks_1024::0            3                       # Occupied blocks per task id
system.l2.tags.age_task_id_blocks_1024::1           35                       # Occupied blocks per task id
system.l2.tags.age_task_id_blocks_1024::2          562                       # Occupied blocks per task id
system.l2.tags.age_task_id_blocks_1024::3         4499                       # Occupied blocks per task id
system.l2.tags.age_task_id_blocks_1024::4         3093                       # Occupied blocks per task id
system.l2.tags.occ_task_id_percent::1024            1                       # Percentage of cache occupancy per task id
system.l2.tags.tag_accesses                    302933                       # Number of tag accesses
system.l2.tags.data_accesses                   302933                       # Number of data accesses
system.l2.tags.power_state.pwrStateResidencyTicks::UNDEFINED  57687202500                       # Cumulative time (in ticks) in various power states
system.mem_ctrls.avgPriority_.writebacks::samples     37607.00                       # Average QoS priority value for accepted requests
system.mem_ctrls.avgPriority_.cpu.inst::samples       520.00                       # Average QoS priority value for accepted requests
system.mem_ctrls.avgPriority_.cpu.data::samples     45953.00                       # Average QoS priority value for accepted requests
system.mem_ctrls.priorityMinLatency      0.000000018750                       # per QoS priority minimum request to response latency (s)
system.mem_ctrls.priorityMaxLatency      0.003158634250                       # per QoS priority maximum request to response latency (s)
system.mem_ctrls.numReadWriteTurnArounds         2107                       # Number of turnarounds from READ to WRITE
system.mem_ctrls.numWriteReadTurnArounds         2107                       # Number of turnarounds from WRITE to READ
system.mem_ctrls.numStayReadState              144727                       # Number of times bus staying in READ state
system.mem_ctrls.numStayWriteState              35513                       # Number of times bus staying in WRITE state
system.mem_ctrls.readReqs                       46489                       # Number of read requests accepted
system.mem_ctrls.writeReqs                      37607                       # Number of write requests accepted
system.mem_ctrls.readBursts                     46489                       # Number of controller read bursts, including those serviced by the write queue
system.mem_ctrls.writeBursts                    37607                       # Number of controller write bursts, including those merged in the write queue
system.mem_ctrls.servicedByWrQ                     16                       # Number of controller read bursts serviced by the write queue
system.mem_ctrls.mergedWrBursts                     0                       # Number of controller write bursts merged with an existing one
system.mem_ctrls.neitherReadNorWriteReqs            0                       # Number of requests that are neither read nor write
system.mem_ctrls.avgRdQLen                       1.08                       # Average read queue length when enqueuing
system.mem_ctrls.avgWrQLen                      23.55                       # Average write queue length when enqueuing
system.mem_ctrls.numRdRetry                         0                       # Number of times read queue was full causing retry
system.mem_ctrls.numWrRetry                         0                       # Number of times write queue was full causing retry
system.mem_ctrls.readPktSize::0                     0                       # Read request sizes (log2)
system.mem_ctrls.readPktSize::1                     0                       # Read request sizes (log2)
system.mem_ctrls.readPktSize::2                     0                       # Read request sizes (log2)
system.mem_ctrls.readPktSize::3                     0                       # Read request sizes (log2)
system.mem_ctrls.readPktSize::4                     0                       # Read request sizes (log2)
system.mem_ctrls.readPktSize::5                     0                       # Read request sizes (log2)
system.mem_ctrls.readPktSize::6                 46489                       # Read request sizes (log2)
system.mem_ctrls.writePktSize::0                    0                       # Write request sizes (log2)
system.mem_ctrls.writePktSize::1                    0                       # Write request sizes (log2)
system.mem_ctrls.writePktSize::2                    0                       # Write request sizes (log2)
system.mem_ctrls.writePktSize::3                    0                       # Write request sizes (log2)
system.mem_ctrls.writePktSize::4                    0                       # Write request sizes (log2)
system.mem_ctrls.writePktSize::5                    0                       # Write request sizes (log2)
system.mem_ctrls.writePktSize::6                37607                       # Write request sizes (log2)
system.mem_ctrls.rdQLenPdf::0                   44044                       # What read queue length does an incoming req see
system.mem_ctrls.rdQLenPdf::1                    2422                       # What read queue length does an incoming req see
system.mem_ctrls.rdQLenPdf::2                       7                       # What read queue length does an incoming req see
[...]
system.mem_ctrls.dram.bw_write::.writebacks     41722391                       # Write bandwidth from this memory (bytes/s)
system.mem_ctrls.dram.bw_write::total        41722391                       # Write bandwidth from this memory (bytes/s)
system.mem_ctrls.dram.bw_total::.writebacks     41722391                       # Total bandwidth to/from this memory (bytes/s)
system.mem_ctrls.dram.bw_total::.cpu.inst       576904                       # Total bandwidth to/from this memory (bytes/s)
system.mem_ctrls.dram.bw_total::.cpu.data     50999457                       # Total bandwidth to/from this memory (bytes/s)
system.mem_ctrls.dram.bw_total::total        93298752                       # Total bandwidth to/from this memory (bytes/s)
system.mem_ctrls.dram.readBursts                46473                       # Number of DRAM read bursts
system.mem_ctrls.dram.writeBursts               37585                       # Number of DRAM write bursts
system.mem_ctrls.dram.perBankRdBursts::0         2959                       # Per bank write bursts
system.mem_ctrls.dram.perBankRdBursts::1         2826                       # Per bank write bursts
system.mem_ctrls.dram.perBankRdBursts::2         2884                       # Per bank write bursts
system.mem_ctrls.dram.perBankRdBursts::3         2981                       # Per bank write bursts
system.mem_ctrls.dram.perBankRdBursts::4         2974                       # Per bank write bursts
system.mem_ctrls.dram.perBankRdBursts::5         2737                       # Per bank write bursts
system.mem_ctrls.dram.perBankRdBursts::6         2869                       # Per bank write bursts
system.mem_ctrls.dram.perBankRdBursts::7         3021                       # Per bank write bursts
system.mem_ctrls.dram.perBankRdBursts::8         2847                       # Per bank write bursts
system.mem_ctrls.dram.perBankRdBursts::9         2893                       # Per bank write bursts
system.mem_ctrls.dram.perBankRdBursts::10         2987                       # Per bank write bursts
system.mem_ctrls.dram.perBankRdBursts::11         2901                       # Per bank write bursts
system.mem_ctrls.dram.perBankRdBursts::12         2894                       # Per bank write bursts
system.mem_ctrls.dram.perBankRdBursts::13         2940                       # Per bank write bursts
system.mem_ctrls.dram.perBankRdBursts::14         2889                       # Per bank write bursts
system.mem_ctrls.dram.perBankRdBursts::15         2871                       # Per bank write bursts
system.mem_ctrls.dram.perBankWrBursts::0         2402                       # Per bank write bursts
system.mem_ctrls.dram.perBankWrBursts::1         2270                       # Per bank write bursts
system.mem_ctrls.dram.perBankWrBursts::2         2350                       # Per bank write bursts
system.mem_ctrls.dram.perBankWrBursts::3         2358                       # Per bank write bursts
system.mem_ctrls.dram.perBankWrBursts::4         2381                       # Per bank write bursts
system.mem_ctrls.dram.perBankWrBursts::5         2222                       # Per bank write bursts
system.mem_ctrls.dram.perBankWrBursts::6         2358                       # Per bank write bursts
system.mem_ctrls.dram.perBankWrBursts::7         2484                       # Per bank write bursts
system.mem_ctrls.dram.perBankWrBursts::8         2308                       # Per bank write bursts
system.mem_ctrls.dram.perBankWrBursts::9         2328                       # Per bank write bursts
system.mem_ctrls.dram.perBankWrBursts::10         2434                       # Per bank write bursts
system.mem_ctrls.dram.perBankWrBursts::11         2325                       # Per bank write bursts
system.mem_ctrls.dram.perBankWrBursts::12         2331                       # Per bank write bursts
system.mem_ctrls.dram.perBankWrBursts::13         2402                       # Per bank write bursts
system.mem_ctrls.dram.perBankWrBursts::14         2305                       # Per bank write bursts
system.mem_ctrls.dram.perBankWrBursts::15         2327                       # Per bank write bursts
system.mem_ctrls.dram.totQLat               716724000                       # Total ticks spent queuing
system.mem_ctrls.dram.totBusLat             232365000                       # Total ticks spent in databus transfers
system.mem_ctrls.dram.totMemAccLat         1588092750                       # Total ticks spent from burst creation until serviced by the DRAM
system.mem_ctrls.dram.avgQLat                15422.37                       # Average queueing delay per DRAM burst
system.mem_ctrls.dram.avgBusLat               5000.00                       # Average bus latency per DRAM burst
system.mem_ctrls.dram.avgMemAccLat           34172.37                       # Average memory access latency per DRAM burst
system.mem_ctrls.dram.readRowHits               28717                       # Number of row buffer hits during reads
system.mem_ctrls.dram.writeRowHits              27307                       # Number of row buffer hits during writes
system.mem_ctrls.dram.readRowHitRate            61.79                       # Row buffer hit rate for reads
system.mem_ctrls.dram.writeRowHitRate           72.65                       # Row buffer hit rate for writes
system.mem_ctrls.dram.bytesPerActivate::samples        28033                       # Bytes accessed per row activation
system.mem_ctrls.dram.bytesPerActivate::mean   191.901830                       # Bytes accessed per row activation
system.mem_ctrls.dram.bytesPerActivate::gmean   127.412306                       # Bytes accessed per row activation
system.mem_ctrls.dram.bytesPerActivate::stdev   220.807959                       # Bytes accessed per row activation
system.mem_ctrls.dram.bytesPerActivate::0-127        13963     49.81%     49.81% # Bytes accessed per row activation
system.mem_ctrls.dram.bytesPerActivate::128-255         8877     31.67%     81.48% # Bytes accessed per row activation
system.mem_ctrls.dram.bytesPerActivate::256-383         1502      5.36%     86.83% # Bytes accessed per row activation
system.mem_ctrls.dram.bytesPerActivate::384-511          905      3.23%     90.06% # Bytes accessed per row activation
system.mem_ctrls.dram.bytesPerActivate::512-639          705      2.51%     92.58% # Bytes accessed per row activation
system.mem_ctrls.dram.bytesPerActivate::640-767          535      1.91%     94.49% # Bytes accessed per row activation
system.mem_ctrls.dram.bytesPerActivate::768-895          456      1.63%     96.11% # Bytes accessed per row activation
system.mem_ctrls.dram.bytesPerActivate::896-1023          438      1.56%     97.67% # Bytes accessed per row activation
system.mem_ctrls.dram.bytesPerActivate::1024-1151          652      2.33%    100.00% # Bytes accessed per row activation
system.mem_ctrls.dram.bytesPerActivate::total        28033                       # Bytes accessed per row activation
system.mem_ctrls.dram.bytesRead               2974272                       # Total number of bytes read from DRAM
system.mem_ctrls.dram.bytesWritten            2405440                       # Total number of bytes written to DRAM
system.mem_ctrls.dram.avgRdBW               51.558610                       # Average DRAM read bandwidth in MiBytes/s
system.mem_ctrls.dram.avgWrBW               41.697983                       # Average DRAM write bandwidth in MiBytes/s
system.mem_ctrls.dram.peakBW                 12800.00                       # Theoretical peak bandwidth in MiByte/s
system.mem_ctrls.dram.busUtil                    0.73                       # Data bus utilization in percentage
system.mem_ctrls.dram.busUtilRead                0.40                       # Data bus utilization in percentage for reads
system.mem_ctrls.dram.busUtilWrite               0.33                       # Data bus utilization in percentage for writes
system.mem_ctrls.dram.pageHitRate               66.65                       # Row buffer hit rate, read and write combined
system.mem_ctrls.dram.power_state.pwrStateResidencyTicks::UNDEFINED  57687202500                       # Cumulative time (in ticks) in various power states
system.mem_ctrls.dram.rank0.actEnergy       102694620                       # Energy for activate commands per rank (pJ)
system.mem_ctrls.dram.rank0.preEnergy        54579690                       # Energy for precharge commands per rank (pJ)
system.mem_ctrls.dram.rank0.readEnergy      166012140                       # Energy for read commands per rank (pJ)
system.mem_ctrls.dram.rank0.writeEnergy      98266500                       # Energy for write commands per rank (pJ)
system.mem_ctrls.dram.rank0.refreshEnergy 4553253120.000001                       # Energy for refresh commands per rank (pJ)
system.mem_ctrls.dram.rank0.actBackEnergy  15788889420                       # Energy for active background per rank (pJ)
system.mem_ctrls.dram.rank0.preBackEnergy   8855978880                       # Energy for precharge background per rank (pJ)
system.mem_ctrls.dram.rank0.actPowerDownEnergy            0                       # Energy for active power-down per rank (pJ)
system.mem_ctrls.dram.rank0.prePowerDownEnergy            0                       # Energy for precharge power-down per rank (pJ)
system.mem_ctrls.dram.rank0.selfRefreshEnergy            0                       # Energy for self refresh per rank (pJ)
system.mem_ctrls.dram.rank0.totalEnergy   29619674370                       # Total energy per rank (pJ)
system.mem_ctrls.dram.rank0.averagePower   513.453125                       # Core power per rank (mW)
system.mem_ctrls.dram.rank0.totalIdleTime            0                       # Total Idle time Per DRAM Rank
system.mem_ctrls.dram.rank0.pwrStateTime::IDLE  22877609500                       # Time in different power states
system.mem_ctrls.dram.rank0.pwrStateTime::REF   1926080000                       # Time in different power states
system.mem_ctrls.dram.rank0.pwrStateTime::SREF            0                       # Time in different power states
system.mem_ctrls.dram.rank0.pwrStateTime::PRE_PDN            0                       # Time in different power states
system.mem_ctrls.dram.rank0.pwrStateTime::ACT  32883513000                       # Time in different power states
system.mem_ctrls.dram.rank0.pwrStateTime::ACT_PDN            0                       # Time in different power states
system.mem_ctrls.dram.rank1.actEnergy        97468140                       # Energy for activate commands per rank (pJ)
system.mem_ctrls.dram.rank1.preEnergy        51805545                       # Energy for precharge commands per rank (pJ)
system.mem_ctrls.dram.rank1.readEnergy      165805080                       # Energy for read commands per rank (pJ)
system.mem_ctrls.dram.rank1.writeEnergy      97927200                       # Energy for write commands per rank (pJ)
system.mem_ctrls.dram.rank1.refreshEnergy 4553253120.000001                       # Energy for refresh commands per rank (pJ)
system.mem_ctrls.dram.rank1.actBackEnergy  15975188220                       # Energy for active background per rank (pJ)
system.mem_ctrls.dram.rank1.preBackEnergy   8699095680                       # Energy for precharge background per rank (pJ)
system.mem_ctrls.dram.rank1.actPowerDownEnergy            0                       # Energy for active power-down per rank (pJ)
system.mem_ctrls.dram.rank1.prePowerDownEnergy            0                       # Energy for precharge power-down per rank (pJ)
system.mem_ctrls.dram.rank1.selfRefreshEnergy            0                       # Energy for self refresh per rank (pJ)
system.mem_ctrls.dram.rank1.totalEnergy   29640542985                       # Total energy per rank (pJ)
system.mem_ctrls.dram.rank1.averagePower   513.814879                       # Core power per rank (mW)
system.mem_ctrls.dram.rank1.totalIdleTime            0                       # Total Idle time Per DRAM Rank
system.mem_ctrls.dram.rank1.pwrStateTime::IDLE  22465849000                       # Time in different power states
system.mem_ctrls.dram.rank1.pwrStateTime::REF   1926080000                       # Time in different power states
system.mem_ctrls.dram.rank1.pwrStateTime::SREF            0                       # Time in different power states
system.mem_ctrls.dram.rank1.pwrStateTime::PRE_PDN            0                       # Time in different power states
system.mem_ctrls.dram.rank1.pwrStateTime::ACT  33295273500                       # Time in different power states
system.mem_ctrls.dram.rank1.pwrStateTime::ACT_PDN            0                       # Time in different power states
system.mem_ctrls.power_state.pwrStateResidencyTicks::UNDEFINED  57687202500                       # Cumulative time (in ticks) in various power states
system.membus.trans_dist::ReadResp               7679                       # Transaction distribution
system.membus.trans_dist::WritebackDirty        37607                       # Transaction distribution
system.membus.trans_dist::CleanEvict              205                       # Transaction distribution
system.membus.trans_dist::ReadExReq             38810                       # Transaction distribution
system.membus.trans_dist::ReadExResp            38810                       # Transaction distribution
system.membus.trans_dist::ReadSharedReq          7679                       # Transaction distribution
system.membus.pkt_count_system.l2.mem_side_port::system.mem_ctrls.port       130790                       # Packet count per connected requestor and responder (bytes)
system.membus.pkt_count::total                 130790                       # Packet count per connected requestor and responder (bytes)
system.membus.pkt_size_system.l2.mem_side_port::system.mem_ctrls.port      5382144                       # Cumulative packet size per connected requestor and responder (bytes)
system.membus.pkt_size::total                 5382144                       # Cumulative packet size per connected requestor and responder (bytes)
system.membus.snoops                                0                       # Total snoops (count)
system.membus.snoopTraffic                          0                       # Total snoop traffic (bytes)
system.membus.snoop_fanout::samples             46489                       # Request fanout histogram
system.membus.snoop_fanout::mean                    0                       # Request fanout histogram
system.membus.snoop_fanout::stdev                   0                       # Request fanout histogram
system.membus.snoop_fanout::underflows              0      0.00%      0.00% # Request fanout histogram
system.membus.snoop_fanout::0                   46489    100.00%    100.00% # Request fanout histogram
system.membus.snoop_fanout::1                       0      0.00%    100.00% # Request fanout histogram
system.membus.snoop_fanout::overflows               0      0.00%    100.00% # Request fanout histogram
system.membus.snoop_fanout::min_value               0                       # Request fanout histogram
system.membus.snoop_fanout::max_value               0                       # Request fanout histogram
system.membus.snoop_fanout::total               46489                       # Request fanout histogram
system.membus.power_state.pwrStateResidencyTicks::UNDEFINED  57687202500                       # Cumulative time (in ticks) in various power states
system.membus.reqLayer0.occupancy           246189500                       # Layer occupancy (ticks)
system.membus.reqLayer0.utilization               0.4                       # Layer utilization (%)
system.membus.respLayer1.occupancy          248532500                       # Layer occupancy (ticks)
system.membus.respLayer1.utilization              0.4                       # Layer utilization (%)
system.tol2bus.trans_dist::ReadResp             25531                       # Transaction distribution
system.tol2bus.trans_dist::WritebackDirty        91625                       # Transaction distribution
system.tol2bus.trans_dist::WritebackClean          314                       # Transaction distribution
system.tol2bus.trans_dist::CleanEvict           10119                       # Transaction distribution
system.tol2bus.trans_dist::ReadExReq            39046                       # Transaction distribution
system.tol2bus.trans_dist::ReadExResp           39046                       # Transaction distribution
system.tol2bus.trans_dist::ReadCleanReq           770                       # Transaction distribution
system.tol2bus.trans_dist::ReadSharedReq        24761                       # Transaction distribution
system.tol2bus.pkt_count_system.cpu.icache.mem_side_port::system.l2.cpu_side_port         1854                       # Packet count per connected requestor and responder (bytes)
system.tol2bus.pkt_count_system.cpu.dcache.mem_side_port::system.l2.cpu_side_port       190909                       # Packet count per connected requestor and responder (bytes)
system.tol2bus.pkt_count::total                192763                       # Packet count per connected requestor and responder (bytes)
system.tol2bus.pkt_size_system.cpu.icache.mem_side_port::system.l2.cpu_side_port        69376                       # Cumulative packet size per connected requestor and responder (bytes)
system.tol2bus.pkt_size_system.cpu.dcache.mem_side_port::system.l2.cpu_side_port      7540800                       # Cumulative packet size per connected requestor and responder (bytes)
system.tol2bus.pkt_size::total                7610176                       # Cumulative packet size per connected requestor and responder (bytes)
system.tol2bus.snoops                           38449                       # Total snoops (count)
system.tol2bus.snoopTraffic                   2406848                       # Total snoop traffic (bytes)
system.tol2bus.snoop_fanout::samples           103026                       # Request fanout histogram
system.tol2bus.snoop_fanout::mean            0.007280                       # Request fanout histogram
system.tol2bus.snoop_fanout::stdev           0.086257                       # Request fanout histogram
system.tol2bus.snoop_fanout::underflows             0      0.00%      0.00% # Request fanout histogram
system.tol2bus.snoop_fanout::0                 102287     99.28%     99.28% # Request fanout histogram
system.tol2bus.snoop_fanout::1                    728      0.71%     99.99% # Request fanout histogram
system.tol2bus.snoop_fanout::2                     11      0.01%    100.00% # Request fanout histogram
system.tol2bus.snoop_fanout::overflows              0      0.00%    100.00% # Request fanout histogram
system.tol2bus.snoop_fanout::min_value              0                       # Request fanout histogram
system.tol2bus.snoop_fanout::max_value              2                       # Request fanout histogram
system.tol2bus.snoop_fanout::total             103026                       # Request fanout histogram
system.tol2bus.power_state.pwrStateResidencyTicks::UNDEFINED  57687202500                       # Cumulative time (in ticks) in various power states
system.tol2bus.reqLayer0.occupancy          118425000                       # Layer occupancy (ticks)
system.tol2bus.reqLayer0.utilization              0.2                       # Layer utilization (%)
system.tol2bus.respLayer0.occupancy           1155499                       # Layer occupancy (ticks)
system.tol2bus.respLayer0.utilization             0.0                       # Layer utilization (%)
system.tol2bus.respLayer1.occupancy          95712995                       # Layer occupancy (ticks)
system.tol2bus.respLayer1.utilization             0.2                       # Layer utilization (%)
system.voltage_domain.voltage                       1                       # Voltage in Volts

---------- End Simulation Statistics   ----------
