
---------- Begin Simulation Statistics ----------
final_tick                               371487022000                       # Number of ticks from beginning of simulation (restored from checkpoints and never reset)
host_inst_rate                                  68133                       # Simulator instruction rate (inst/s)
host_mem_usage                                 661136                       # Number of bytes of host memory used
host_op_rate                                   125514                       # Simulator op (including micro ops) rate (op/s)
host_seconds                                  1467.72                       # Real time elapsed on the host
host_tick_rate                              253105442                       # Simulator tick rate (ticks/s)
sim_freq                                 1000000000000                       # Frequency of simulated ticks
sim_insts                                   100000001                       # Number of instructions simulated
sim_ops                                     184218784                       # Number of ops (including micro ops) simulated
sim_seconds                                  0.371487                       # Number of seconds simulated
sim_ticks                                371487022000                       # Number of ticks simulated
system.cpu.committedInsts                   100000001                       # Number of instructions committed
system.cpu.committedOps                     184218784                       # Number of ops (including micro ops) committed
system.cpu.cpi                               3.714870                       # CPI: cycles per instruction
system.cpu.discardedOps                          4410                       # Number of ops (including micro ops) which were discarded before commit
system.cpu.idleCycles                       153748587                       # Total number of cycles that the object has spent stopped
system.cpu.ipc                               0.269188                       # IPC: instructions per cycle
system.cpu.numCycles                        371487022                       # number of cpu cycles simulated
system.cpu.numFetchSuspends                         0                       # Number of times Execute suspended instruction fetching
system.cpu.numWorkItemsCompleted                    0                       # number of work items this cpu completed
system.cpu.numWorkItemsStarted                      0                       # number of work items this cpu started
system.cpu.op_class_0::No_OpClass                   0      0.00%      0.00% # Class of committed instruction
system.cpu.op_class_0::IntAlu                97640468     53.00%     53.00% # Class of committed instruction
system.cpu.op_class_0::IntMult                 114702      0.06%     53.06% # Class of committed instruction
system.cpu.op_class_0::IntDiv                       0      0.00%     53.06% # Class of committed instruction
system.cpu.op_class_0::FloatAdd                     0      0.00%     53.06% # Class of committed instruction
system.cpu.op_class_0::FloatCmp                     0      0.00%     53.06% # Class of committed instruction
system.cpu.op_class_0::FloatCvt                     0      0.00%     53.06% # Class of committed instruction
system.cpu.op_class_0::FloatMult                    0      0.00%     53.06% # Class of committed instruction
system.cpu.op_class_0::FloatMultAcc                 0      0.00%     53.06% # Class of committed instruction
system.cpu.op_class_0::FloatDiv                     0      0.00%     53.06% # Class of committed instruction
system.cpu.op_class_0::FloatMisc                    0      0.00%     53.06% # Class of committed instruction
system.cpu.op_class_0::FloatSqrt                    0      0.00%     53.06% # Class of committed instruction
system.cpu.op_class_0::SimdAdd                      8      0.00%     53.06% # Class of committed instruction
system.cpu.op_class_0::SimdAddAcc                   0      0.00%     53.06% # Class of committed instruction
system.cpu.op_class_0::SimdAlu                     10      0.00%     53.06% # Class of committed instruction
system.cpu.op_class_0::SimdCmp                      8      0.00%     53.06% # Class of committed instruction
system.cpu.op_class_0::SimdCvt                      0      0.00%     53.06% # Class of committed instruction
system.cpu.op_class_0::SimdMisc                     1      0.00%     53.06% # Class of committed instruction
system.cpu.op_class_0::SimdMult                     0      0.00%     53.06% # Class of committed instruction
system.cpu.op_class_0::SimdMultAcc                  0      0.00%     53.06% # Class of committed instruction
system.cpu.op_class_0::SimdShift                    0      0.00%     53.06% # Class of committed instruction
system.cpu.op_class_0::SimdShiftAcc                 0      0.00%     53.06% # Class of committed instruction
system.cpu.op_class_0::SimdDiv                      0      0.00%     53.06% # Class of committed instruction
system.cpu.op_class_0::SimdSqrt                     0      0.00%     53.06% # Class of committed instruction
system.cpu.op_class_0::SimdFloatAdd                 0      0.00%     53.06% # Class of committed instruction
system.cpu.op_class_0::SimdFloatAlu                 0      0.00%     53.06% # Class of committed instruction
system.cpu.op_class_0::SimdFloatCmp                 0      0.00%     53.06% # Class of committed instruction
system.cpu.op_class_0::SimdFloatCvt                 0      0.00%     53.06% # Class of committed instruction
system.cpu.op_class_0::SimdFloatDiv                 0      0.00%     53.06% # Class of committed instruction
system.cpu.op_class_0::SimdFloatMisc               24      0.00%     53.06% # Class of committed instruction
system.cpu.op_class_0::SimdFloatMult                0      0.00%     53.06% # Class of committed instruction
system.cpu.op_class_0::SimdFloatMultAcc             0      0.00%     53.06% # Class of committed instruction
system.cpu.op_class_0::SimdFloatSqrt                0      0.00%     53.06% # Class of committed instruction
system.cpu.op_class_0::SimdReduceAdd                0      0.00%     53.06% # Class of committed instruction
system.cpu.op_class_0::SimdReduceAlu                0      0.00%     53.06% # Class of committed instruction
system.cpu.op_class_0::SimdReduceCmp                0      0.00%     53.06% # Class of committed instruction
system.cpu.op_class_0::SimdFloatReduceAdd            0      0.00%     53.06% # Class of committed instruction
system.cpu.op_class_0::SimdFloatReduceCmp            0      0.00%     53.06% # Class of committed instruction
system.cpu.op_class_0::SimdAes                      0      0.00%     53.06% # Class of committed instruction
system.cpu.op_class_0::SimdAesMix                   0      0.00%     53.06% # Class of committed instruction
system.cpu.op_class_0::SimdSha1Hash                 0      0.00%     53.06% # Class of committed instruction
system.cpu.op_class_0::SimdSha1Hash2                0      0.00%     53.06% # Class of committed instruction
system.cpu.op_class_0::SimdSha256Hash               0      0.00%     53.06% # Class of committed instruction
system.cpu.op_class_0::SimdSha256Hash2              0      0.00%     53.06% # Class of committed instruction
system.cpu.op_class_0::SimdShaSigma2                0      0.00%     53.06% # Class of committed instruction
system.cpu.op_class_0::SimdShaSigma3                0      0.00%     53.06% # Class of committed instruction
system.cpu.op_class_0::SimdPredAlu                  0      0.00%     53.06% # Class of committed instruction
system.cpu.op_class_0::MemRead                2082677      1.13%     54.20% # Class of committed instruction
system.cpu.op_class_0::MemWrite              84380886     45.80%    100.00% # Class of committed instruction
system.cpu.op_class_0::FloatMemRead                 0      0.00%    100.00% # Class of committed instruction
system.cpu.op_class_0::FloatMemWrite                0      0.00%    100.00% # Class of committed instruction
system.cpu.op_class_0::IprAccess                    0      0.00%    100.00% # Class of committed instruction
system.cpu.op_class_0::InstPrefetch                 0      0.00%    100.00% # Class of committed instruction
system.cpu.op_class_0::total                184218784                       # Class of committed instruction
system.cpu.tickCycles                       217738435                       # Number of cycles that the object actually ticked
system.cpu.workload.numSyscalls                    19                       # Number of system calls
system.membus.snoop_filter.hit_multi_requests            0                       # Number of requests hitting in the snoop filter with multiple (>1) holders of the requested data.
system.membus.snoop_filter.hit_multi_snoops            0                       # Number of snoops hitting in the snoop filter with multiple (>1) holders of the requested data.
system.membus.snoop_filter.hit_single_requests      1299659                       # Number of requests hitting in the snoop filter with a single holder of the requested data.
system.membus.snoop_filter.hit_single_snoops            0                       # Number of snoops hitting in the snoop filter with a single holder of the requested data.
system.membus.snoop_filter.tot_requests       2615934                       # Total number of requests made to the snoop filter.
system.membus.snoop_filter.tot_snoops               0                       # Total number of snoops made to the snoop filter.
system.tol2bus.snoop_filter.hit_multi_requests           64                       # Number of requests hitting in the snoop filter with multiple (>1) holders of the requested data.
system.tol2bus.snoop_filter.hit_multi_snoops            0                       # Number of snoops hitting in the snoop filter with multiple (>1) holders of the requested data.
system.tol2bus.snoop_filter.hit_single_requests      1316343                       # Number of requests hitting in the snoop filter with a single holder of the requested data.
system.tol2bus.snoop_filter.hit_single_snoops          272                       # Number of snoops hitting in the snoop filter with a single holder of the requested data.
system.tol2bus.snoop_filter.tot_requests      2633446                       # Total number of requests made to the snoop filter.
system.tol2bus.snoop_filter.tot_snoops            272                       # Total number of snoops made to the snoop filter.
system.clk_domain.clock                          1000                       # Clock period in ticks
system.cpu.branchPred.lookups                10658362                       # Number of BP lookups
system.cpu.branchPred.condPredicted          10650067                       # Number of conditional branches predicted
system.cpu.branchPred.condIncorrect              1449                       # Number of conditional branches incorrect
system.cpu.branchPred.BTBLookups             10650243                       # Number of BTB lookups
system.cpu.branchPred.BTBHits                10648837                       # Number of BTB hits
system.cpu.branchPred.BTBHitPct             99.986798                       # BTB Hit Percentage
system.cpu.branchPred.RASUsed                    2733                       # Number of times the RAS was used to get a target.
system.cpu.branchPred.RASIncorrect                  1                       # Number of incorrect RAS predictions.
system.cpu.branchPred.indirectLookups             194                       # Number of indirect predictor lookups.
system.cpu.branchPred.indirectHits                 19                       # Number of indirect target hits.
system.cpu.branchPred.indirectMisses              175                       # Number of indirect misses.
system.cpu.branchPred.indirectMispredicted          101                       # Number of mispredicted indirect branches.
system.cpu.dcache.demand_hits::.cpu.data     83747852                       # number of demand (read+write) hits
system.cpu.dcache.demand_hits::total         83747852                       # number of demand (read+write) hits
system.cpu.dcache.overall_hits::.cpu.data     83747907                       # number of overall hits
system.cpu.dcache.overall_hits::total        83747907                       # number of overall hits
system.cpu.dcache.demand_misses::.cpu.data      2632250                       # number of demand (read+write) misses
system.cpu.dcache.demand_misses::total        2632250                       # number of demand (read+write) misses
system.cpu.dcache.overall_misses::.cpu.data      2632266                       # number of overall misses
system.cpu.dcache.overall_misses::total       2632266                       # number of overall misses
system.cpu.dcache.demand_miss_latency::.cpu.data 350416317000                       # number of demand (read+write) miss cycles
system.cpu.dcache.demand_miss_latency::total 350416317000                       # number of demand (read+write) miss cycles
system.cpu.dcache.overall_miss_latency::.cpu.data 350416317000                       # number of overall miss cycles
system.cpu.dcache.overall_miss_latency::total 350416317000                       # number of overall miss cycles
system.cpu.dcache.demand_accesses::.cpu.data     86380102                       # number of demand (read+write) accesses
system.cpu.dcache.demand_accesses::total     86380102                       # number of demand (read+write) accesses
system.cpu.dcache.overall_accesses::.cpu.data     86380173                       # number of overall (read+write) accesses
system.cpu.dcache.overall_accesses::total     86380173                       # number of overall (read+write) accesses
system.cpu.dcache.demand_miss_rate::.cpu.data     0.030473                       # miss rate for demand accesses
system.cpu.dcache.demand_miss_rate::total     0.030473                       # miss rate for demand accesses
system.cpu.dcache.overall_miss_rate::.cpu.data     0.030473                       # miss rate for overall accesses
system.cpu.dcache.overall_miss_rate::total     0.030473                       # miss rate for overall accesses
system.cpu.dcache.demand_avg_miss_latency::.cpu.data 133124.253775                       # average overall miss latency
system.cpu.dcache.demand_avg_miss_latency::total 133124.253775                       # average overall miss latency
system.cpu.dcache.overall_avg_miss_latency::.cpu.data 133123.444591                       # average overall miss latency
system.cpu.dcache.overall_avg_miss_latency::total 133123.444591                       # average overall miss latency
system.cpu.dcache.blocked_cycles::no_mshrs            0                       # number of cycles access was blocked
system.cpu.dcache.blocked_cycles::no_targets            0                       # number of cycles access was blocked
system.cpu.dcache.blocked::no_mshrs                 0                       # number of cycles access was blocked
system.cpu.dcache.blocked::no_targets               0                       # number of cycles access was blocked
system.cpu.dcache.avg_blocked_cycles::no_mshrs          nan                       # average number of cycles each access was blocked
system.cpu.dcache.avg_blocked_cycles::no_targets          nan                       # average number of cycles each access was blocked
system.cpu.dcache.writebacks::.writebacks      1316063                       # number of writebacks
system.cpu.dcache.writebacks::total           1316063                       # number of writebacks
system.cpu.dcache.demand_mshr_hits::.cpu.data      1315441                       # number of demand (read+write) MSHR hits
system.cpu.dcache.demand_mshr_hits::total      1315441                       # number of demand (read+write) MSHR hits
system.cpu.dcache.overall_mshr_hits::.cpu.data      1315441                       # number of overall MSHR hits
system.cpu.dcache.overall_mshr_hits::total      1315441                       # number of overall MSHR hits
system.cpu.dcache.demand_mshr_misses::.cpu.data      1316809                       # number of demand (read+write) MSHR misses
system.cpu.dcache.demand_mshr_misses::total      1316809                       # number of demand (read+write) MSHR misses
system.cpu.dcache.overall_mshr_misses::.cpu.data      1316817                       # number of overall MSHR misses
system.cpu.dcache.overall_mshr_misses::total      1316817                       # number of overall MSHR misses
system.cpu.dcache.demand_mshr_miss_latency::.cpu.data 168040154000                       # number of demand (read+write) MSHR miss cycles
system.cpu.dcache.demand_mshr_miss_latency::total 168040154000                       # number of demand (read+write) MSHR miss cycles
system.cpu.dcache.overall_mshr_miss_latency::.cpu.data 168041045000                       # number of overall MSHR miss cycles
system.cpu.dcache.overall_mshr_miss_latency::total 168041045000                       # number of overall MSHR miss cycles
system.cpu.dcache.demand_mshr_miss_rate::.cpu.data     0.015244                       # mshr miss rate for demand accesses
system.cpu.dcache.demand_mshr_miss_rate::total     0.015244                       # mshr miss rate for demand accesses
system.cpu.dcache.overall_mshr_miss_rate::.cpu.data     0.015244                       # mshr miss rate for overall accesses
system.cpu.dcache.overall_mshr_miss_rate::total     0.015244                       # mshr miss rate for overall accesses
system.cpu.dcache.demand_avg_mshr_miss_latency::.cpu.data 127611.638438                       # average overall mshr miss latency
system.cpu.dcache.demand_avg_mshr_miss_latency::total 127611.638438                       # average overall mshr miss latency
system.cpu.dcache.overall_avg_mshr_miss_latency::.cpu.data 127611.539796                       # average overall mshr miss latency
system.cpu.dcache.overall_avg_mshr_miss_latency::total 127611.539796                       # average overall mshr miss latency
system.cpu.dcache.replacements                1316305                       # number of replacements
system.cpu.dcache.ReadReq_hits::.cpu.data      2042934                       # number of ReadReq hits
system.cpu.dcache.ReadReq_hits::total         2042934                       # number of ReadReq hits
system.cpu.dcache.ReadReq_misses::.cpu.data          602                       # number of ReadReq misses
system.cpu.dcache.ReadReq_misses::total           602                       # number of ReadReq misses
system.cpu.dcache.ReadReq_miss_latency::.cpu.data     35701000                       # number of ReadReq miss cycles
system.cpu.dcache.ReadReq_miss_latency::total     35701000                       # number of ReadReq miss cycles
system.cpu.dcache.ReadReq_accesses::.cpu.data      2043536                       # number of ReadReq accesses(hits+misses)
system.cpu.dcache.ReadReq_accesses::total      2043536                       # number of ReadReq accesses(hits+misses)
system.cpu.dcache.ReadReq_miss_rate::.cpu.data     0.000295                       # miss rate for ReadReq accesses
system.cpu.dcache.ReadReq_miss_rate::total     0.000295                       # miss rate for ReadReq accesses
system.cpu.dcache.ReadReq_avg_miss_latency::.cpu.data 59303.986711                       # average ReadReq miss latency
system.cpu.dcache.ReadReq_avg_miss_latency::total 59303.986711                       # average ReadReq miss latency
system.cpu.dcache.ReadReq_mshr_hits::.cpu.data           70                       # number of ReadReq MSHR hits
system.cpu.dcache.ReadReq_mshr_hits::total           70                       # number of ReadReq MSHR hits
system.cpu.dcache.ReadReq_mshr_misses::.cpu.data          532                       # number of ReadReq MSHR misses
system.cpu.dcache.ReadReq_mshr_misses::total          532                       # number of ReadReq MSHR misses
system.cpu.dcache.ReadReq_mshr_miss_latency::.cpu.data     29396000                       # number of ReadReq MSHR miss cycles
system.cpu.dcache.ReadReq_mshr_miss_latency::total     29396000                       # number of ReadReq MSHR miss cycles
system.cpu.dcache.ReadReq_mshr_miss_rate::.cpu.data     0.000260                       # mshr miss rate for ReadReq accesses
system.cpu.dcache.ReadReq_mshr_miss_rate::total     0.000260                       # mshr miss rate for ReadReq accesses
system.cpu.dcache.ReadReq_avg_mshr_miss_latency::.cpu.data 55255.639098                       # average ReadReq mshr miss latency
system.cpu.dcache.ReadReq_avg_mshr_miss_latency::total 55255.639098                       # average ReadReq mshr miss latency
system.cpu.dcache.WriteReq_hits::.cpu.data     81704918                       # number of WriteReq hits
system.cpu.dcache.WriteReq_hits::total       81704918                       # number of WriteReq hits
system.cpu.dcache.WriteReq_misses::.cpu.data      2631648                       # number of WriteReq misses
system.cpu.dcache.WriteReq_misses::total      2631648                       # number of WriteReq misses
system.cpu.dcache.WriteReq_miss_latency::.cpu.data 350380616000                       # number of WriteReq miss cycles
system.cpu.dcache.WriteReq_miss_latency::total 350380616000                       # number of WriteReq miss cycles
system.cpu.dcache.WriteReq_accesses::.cpu.data     84336566                       # number of WriteReq accesses(hits+misses)
system.cpu.dcache.WriteReq_accesses::total     84336566                       # number of WriteReq accesses(hits+misses)
system.cpu.dcache.WriteReq_miss_rate::.cpu.data     0.031204                       # miss rate for WriteReq accesses
system.cpu.dcache.WriteReq_miss_rate::total     0.031204                       # miss rate for WriteReq accesses
system.cpu.dcache.WriteReq_avg_miss_latency::.cpu.data 133141.140456                       # average WriteReq miss latency
system.cpu.dcache.WriteReq_avg_miss_latency::total 133141.140456                       # average WriteReq miss latency
system.cpu.dcache.WriteReq_mshr_hits::.cpu.data      1315371                       # number of WriteReq MSHR hits
system.cpu.dcache.WriteReq_mshr_hits::total      1315371                       # number of WriteReq MSHR hits
system.cpu.dcache.WriteReq_mshr_misses::.cpu.data      1316277                       # number of WriteReq MSHR misses
system.cpu.dcache.WriteReq_mshr_misses::total      1316277                       # number of WriteReq MSHR misses
system.cpu.dcache.WriteReq_mshr_miss_latency::.cpu.data 168010758000                       # number of WriteReq MSHR miss cycles
system.cpu.dcache.WriteReq_mshr_miss_latency::total 168010758000                       # number of WriteReq MSHR miss cycles
system.cpu.dcache.WriteReq_mshr_miss_rate::.cpu.data     0.015607                       # mshr miss rate for WriteReq accesses
system.cpu.dcache.WriteReq_mshr_miss_rate::total     0.015607                       # mshr miss rate for WriteReq accesses
system.cpu.dcache.WriteReq_avg_mshr_miss_latency::.cpu.data 127640.882580                       # average WriteReq mshr miss latency
system.cpu.dcache.WriteReq_avg_mshr_miss_latency::total 127640.882580                       # average WriteReq mshr miss latency
system.cpu.dcache.SoftPFReq_hits::.cpu.data           55                       # number of SoftPFReq hits
system.cpu.dcache.SoftPFReq_hits::total            55                       # number of SoftPFReq hits
system.cpu.dcache.SoftPFReq_misses::.cpu.data           16                       # number of SoftPFReq misses
system.cpu.dcache.SoftPFReq_misses::total           16                       # number of SoftPFReq misses
system.cpu.dcache.SoftPFReq_accesses::.cpu.data           71                       # number of SoftPFReq accesses(hits+misses)
system.cpu.dcache.SoftPFReq_accesses::total           71                       # number of SoftPFReq accesses(hits+misses)
system.cpu.dcache.SoftPFReq_miss_rate::.cpu.data     0.225352                       # miss rate for SoftPFReq accesses
system.cpu.dcache.SoftPFReq_miss_rate::total     0.225352                       # miss rate for SoftPFReq accesses
system.cpu.dcache.SoftPFReq_mshr_misses::.cpu.data            8                       # number of SoftPFReq MSHR misses
system.cpu.dcache.SoftPFReq_mshr_misses::total            8                       # number of SoftPFReq MSHR misses
system.cpu.dcache.SoftPFReq_mshr_miss_latency::.cpu.data       891000                       # number of SoftPFReq MSHR miss cycles
system.cpu.dcache.SoftPFReq_mshr_miss_latency::total       891000                       # number of SoftPFReq MSHR miss cycles
system.cpu.dcache.SoftPFReq_mshr_miss_rate::.cpu.data     0.112676                       # mshr miss rate for SoftPFReq accesses
system.cpu.dcache.SoftPFReq_mshr_miss_rate::total     0.112676                       # mshr miss rate for SoftPFReq accesses
system.cpu.dcache.SoftPFReq_avg_mshr_miss_latency::.cpu.data       111375                       # average SoftPFReq mshr miss latency
system.cpu.dcache.SoftPFReq_avg_mshr_miss_latency::total       111375                       # average SoftPFReq mshr miss latency
system.cpu.dcache.LoadLockedReq_hits::.cpu.data           34                       # number of LoadLockedReq hits
system.cpu.dcache.LoadLockedReq_hits::total           34                       # number of LoadLockedReq hits
system.cpu.dcache.LoadLockedReq_accesses::.cpu.data           34                       # number of LoadLockedReq accesses(hits+misses)
system.cpu.dcache.LoadLockedReq_accesses::total           34                       # number of LoadLockedReq accesses(hits+misses)
system.cpu.dcache.StoreCondReq_hits::.cpu.data           34                       # number of StoreCondReq hits
system.cpu.dcache.StoreCondReq_hits::total           34                       # number of StoreCondReq hits
system.cpu.dcache.StoreCondReq_accesses::.cpu.data           34                       # number of StoreCondReq accesses(hits+misses)
system.cpu.dcache.StoreCondReq_accesses::total           34                       # number of StoreCondReq accesses(hits+misses)
system.cpu.dcache.power_state.pwrStateResidencyTicks::UNDEFINED 371487022000                       # Cumulative time (in ticks) in various power states
system.cpu.dcache.tags.tagsinuse           510.286948                       # Cycle average of tags in use
system.cpu.dcache.tags.total_refs            85064792                       # Total number of references to valid blocks.
system.cpu.dcache.tags.sampled_refs           1316817                       # Sample count of references to valid blocks.
system.cpu.dcache.tags.avg_refs             64.598795                       # Average number of references to valid blocks.
system.cpu.dcache.tags.warmup_cycle            258000                       # Cycle when the warmup percentage was hit.
system.cpu.dcache.tags.occ_blocks::.cpu.data   510.286948                       # Average occupied blocks per requestor
system.cpu.dcache.tags.occ_percent::.cpu.data     0.996654                       # Average percentage of cache occupancy
system.cpu.dcache.tags.occ_percent::total     0.996654                       # Average percentage of cache occupancy
system.cpu.dcache.tags.occ_task_id_blocks::1024          512                       # Occupied blocks per task id
system.cpu.dcache.tags.age_task_id_blocks_1024::0           37                       # Occupied blocks per task id
system.cpu.dcache.tags.age_task_id_blocks_1024::1          323                       # Occupied blocks per task id
system.cpu.dcache.tags.age_task_id_blocks_1024::2          152                       # Occupied blocks per task id
system.cpu.dcache.tags.occ_task_id_percent::1024            1                       # Percentage of cache occupancy per task id
system.cpu.dcache.tags.tag_accesses          87697058                       # Number of tag accesses
system.cpu.dcache.tags.data_accesses         87697058                       # Number of data accesses
system.cpu.dcache.tags.power_state.pwrStateResidencyTicks::UNDEFINED 371487022000                       # Cumulative time (in ticks) in various power states
system.cpu.dtb.instHits                             0                       # ITB inst hits
system.cpu.dtb.instMisses                           0                       # ITB inst misses
system.cpu.dtb.readHits                             0                       # DTB read hits
system.cpu.dtb.readMisses                           0                       # DTB read misses
system.cpu.dtb.writeHits                            0                       # DTB write hits
system.cpu.dtb.writeMisses                          0                       # DTB write misses
system.cpu.dtb.inserts                              0                       # Number of times an entry is inserted into the TLB
system.cpu.dtb.flushTlb                             0                       # Number of times complete TLB was flushed
system.cpu.dtb.flushTlbMva                          0                       # Number of times TLB was flushed by MVA
system.cpu.dtb.flushTlbMvaAsid                      0                       # Number of times TLB was flushed by MVA & ASID
system.cpu.dtb.flushTlbAsid                         0                       # Number of times TLB was flushed by ASID
system.cpu.dtb.flushedEntries                       0                       # Number of entries that have been flushed from TLB
system.cpu.dtb.alignFaults                          0                       # Number of TLB faults due to alignment restrictions
system.cpu.dtb.prefetchFaults                       0                       # Number of TLB faults due to prefetch
system.cpu.dtb.domainFaults                         0                       # Number of TLB faults due to domain restrictions
system.cpu.dtb.permsFaults                          0                       # Number of TLB faults due to permissions restrictions
system.cpu.dtb.readAccesses                         0                       # DTB read accesses
system.cpu.dtb.writeAccesses                        0                       # DTB write accesses
system.cpu.dtb.instAccesses                         0                       # ITB inst accesses
system.cpu.dtb.hits                                 0                       # Total TLB (inst and data) hits
system.cpu.dtb.misses                               0                       # Total TLB (inst and data) misses
system.cpu.dtb.accesses                             0                       # Total TLB (inst and data) accesses
system.cpu.dtb.stage2_mmu.stage2_tlb.instHits            0                       # ITB inst hits
system.cpu.dtb.stage2_mmu.stage2_tlb.instMisses            0                       # ITB inst misses
system.cpu.dtb.stage2_mmu.stage2_tlb.readHits            0                       # DTB read hits
system.cpu.dtb.stage2_mmu.stage2_tlb.readMisses            0                       # DTB read misses
system.cpu.dtb.stage2_mmu.stage2_tlb.writeHits            0                       # DTB write hits
system.cpu.dtb.stage2_mmu.stage2_tlb.writeMisses            0                       # DTB write misses
system.cpu.dtb.stage2_mmu.stage2_tlb.inserts            0                       # Number of times an entry is inserted into the TLB
system.cpu.dtb.stage2_mmu.stage2_tlb.flushTlb            0                       # Number of times complete TLB was flushed
system.cpu.dtb.stage2_mmu.stage2_tlb.flushTlbMva            0                       # Number of times TLB was flushed by MVA
system.cpu.dtb.stage2_mmu.stage2_tlb.flushTlbMvaAsid            0                       # Number of times TLB was flushed by MVA & ASID
system.cpu.dtb.stage2_mmu.stage2_tlb.flushTlbAsid            0                       # Number of times TLB was flushed by ASID
system.cpu.dtb.stage2_mmu.stage2_tlb.flushedEntries            0                       # Number of entries that have been flushed from TLB
system.cpu.dtb.stage2_mmu.stage2_tlb.alignFaults            0                       # Number of TLB faults due to alignment restrictions
system.cpu.dtb.stage2_mmu.stage2_tlb.prefetchFaults            0                       # Number of TLB faults due to prefetch
system.cpu.dtb.stage2_mmu.stage2_tlb.domainFaults            0                       # Number of TLB faults due to domain restrictions
system.cpu.dtb.stage2_mmu.stage2_tlb.permsFaults            0                       # Number of TLB faults due to permissions restrictions
system.cpu.dtb.stage2_mmu.stage2_tlb.readAccesses            0                       # DTB read accesses
system.cpu.dtb.stage2_mmu.stage2_tlb.writeAccesses            0                       # DTB write accesses
system.cpu.dtb.stage2_mmu.stage2_tlb.instAccesses            0                       # ITB inst accesses
system.cpu.dtb.stage2_mmu.stage2_tlb.hits            0                       # Total TLB (inst and data) hits
system.cpu.dtb.stage2_mmu.stage2_tlb.misses            0                       # Total TLB (inst and data) misses
system.cpu.dtb.stage2_mmu.stage2_tlb.accesses            0                       # Total TLB (inst and data) accesses
system.cpu.dtb.stage2_mmu.stage2_tlb.walker.walks            0                       # Table walker walks requested
system.cpu.dtb.stage2_mmu.stage2_tlb.walker.requestOrigin_Requested::Data            0                       # Table walker requests started/completed, data/inst
system.cpu.dtb.stage2_mmu.stage2_tlb.walker.requestOrigin_Requested::Inst            0                       # Table walker requests started/completed, data/inst
system.cpu.dtb.stage2_mmu.stage2_tlb.walker.requestOrigin_Requested::total            0                       # Table walker requests started/completed, data/inst
system.cpu.dtb.stage2_mmu.stage2_tlb.walker.requestOrigin_Completed::Data            0                       # Table walker requests started/completed, data/inst
system.cpu.dtb.stage2_mmu.stage2_tlb.walker.requestOrigin_Completed::Inst            0                       # Table walker requests started/completed, data/inst
system.cpu.dtb.stage2_mmu.stage2_tlb.walker.requestOrigin_Completed::total            0                       # Table walker requests started/completed, data/inst
system.cpu.dtb.stage2_mmu.stage2_tlb.walker.requestOrigin::total            0                       # Table walker requests started/completed, data/inst
system.cpu.dtb.stage2_mmu.stage2_tlb.walker.power_state.pwrStateResidencyTicks::UNDEFINED 371487022000                       # Cumulative time (in ticks) in various power states
system.cpu.dtb.walker.walks                         0                       # Table walker walks requested
system.cpu.dtb.walker.requestOrigin_Requested::Data            0                       # Table walker requests started/completed, data/inst
system.cpu.dtb.walker.requestOrigin_Requested::Inst            0                       # Table walker requests started/completed, data/inst
system.cpu.dtb.walker.requestOrigin_Requested::total            0                       # Table walker requests started/completed, data/inst
system.cpu.dtb.walker.requestOrigin_Completed::Data            0                       # Table walker requests started/completed, data/inst
system.cpu.dtb.walker.requestOrigin_Completed::Inst            0                       # Table walker requests started/completed, data/inst
system.cpu.dtb.walker.requestOrigin_Completed::total            0                       # Table walker requests started/completed, data/inst
system.cpu.dtb.walker.requestOrigin::total            0                       # Table walker requests started/completed, data/inst
system.cpu.dtb.walker.power_state.pwrStateResidencyTicks::UNDEFINED 371487022000                       # Cumulative time (in ticks) in various power states
system.cpu.fetch2.intInstructions            45071368                       # Number of integer instructions successfully decoded
system.cpu.fetch2.fpInstructions                    0                       # Number of floating point instructions successfully decoded
system.cpu.fetch2.vecInstructions                   0                       # Number of SIMD instructions successfully decoded
system.cpu.fetch2.loadInstructions            2086527                       # Number of memory load instructions successfully decoded
system.cpu.fetch2.storeInstructions            169206                       # Number of memory store instructions successfully decoded
system.cpu.fetch2.amoInstructions                   0                       # Number of memory atomic instructions successfully decoded
system.cpu.icache.demand_hits::.cpu.inst     32004709                       # number of demand (read+write) hits
system.cpu.icache.demand_hits::total         32004709                       # number of demand (read+write) hits
system.cpu.icache.overall_hits::.cpu.inst     32004709                       # number of overall hits
system.cpu.icache.overall_hits::total        32004709                       # number of overall hits
system.cpu.icache.demand_misses::.cpu.inst          286                       # number of demand (read+write) misses
system.cpu.icache.demand_misses::total            286                       # number of demand (read+write) misses
system.cpu.icache.overall_misses::.cpu.inst          286                       # number of overall misses
system.cpu.icache.overall_misses::total           286                       # number of overall misses
system.cpu.icache.demand_miss_latency::.cpu.inst     33752000                       # number of demand (read+write) miss cycles
system.cpu.icache.demand_miss_latency::total     33752000                       # number of demand (read+write) miss cycles
system.cpu.icache.overall_miss_latency::.cpu.inst     33752000                       # number of overall miss cycles
system.cpu.icache.overall_miss_latency::total     33752000                       # number of overall miss cycles
system.cpu.icache.demand_accesses::.cpu.inst     32004995                       # number of demand (read+write) accesses
system.cpu.icache.demand_accesses::total     32004995                       # number of demand (read+write) accesses
system.cpu.icache.overall_accesses::.cpu.inst     32004995                       # number of overall (read+write) accesses
system.cpu.icache.overall_accesses::total     32004995                       # number of overall (read+write) accesses
system.cpu.icache.demand_miss_rate::.cpu.inst     0.000009                       # miss rate for demand accesses
system.cpu.icache.demand_miss_rate::total     0.000009                       # miss rate for demand accesses
system.cpu.icache.overall_miss_rate::.cpu.inst     0.000009                       # miss rate for overall accesses
system.cpu.icache.overall_miss_rate::total     0.000009                       # miss rate for overall accesses
system.cpu.icache.demand_avg_miss_latency::.cpu.inst 118013.986014                       # average overall miss latency
system.cpu.icache.demand_avg_miss_latency::total 118013.986014                       # average overall miss latency
system.cpu.icache.overall_avg_miss_latency::.cpu.inst 118013.986014                       # average overall miss latency
system.cpu.icache.overall_avg_miss_latency::total 118013.986014                       # average overall miss latency
system.cpu.icache.blocked_cycles::no_mshrs            0                       # number of cycles access was blocked
system.cpu.icache.blocked_cycles::no_targets            0                       # number of cycles access was blocked
system.cpu.icache.blocked::no_mshrs                 0                       # number of cycles access was blocked
system.cpu.icache.blocked::no_targets               0                       # number of cycles access was blocked
system.cpu.icache.avg_blocked_cycles::no_mshrs          nan                       # average number of cycles each access was blocked
system.cpu.icache.avg_blocked_cycles::no_targets          nan                       # average number of cycles each access was blocked
system.cpu.icache.writebacks::.writebacks           38                       # number of writebacks
system.cpu.icache.writebacks::total                38                       # number of writebacks
system.cpu.icache.demand_mshr_misses::.cpu.inst          286                       # number of demand (read+write) MSHR misses
system.cpu.icache.demand_mshr_misses::total          286                       # number of demand (read+write) MSHR misses
system.cpu.icache.overall_mshr_misses::.cpu.inst          286                       # number of overall MSHR misses
system.cpu.icache.overall_mshr_misses::total          286                       # number of overall MSHR misses
system.cpu.icache.demand_mshr_miss_latency::.cpu.inst     33180000                       # number of demand (read+write) MSHR miss cycles
system.cpu.icache.demand_mshr_miss_latency::total     33180000                       # number of demand (read+write) MSHR miss cycles
system.cpu.icache.overall_mshr_miss_latency::.cpu.inst     33180000                       # number of overall MSHR miss cycles
system.cpu.icache.overall_mshr_miss_latency::total     33180000                       # number of overall MSHR miss cycles
system.cpu.icache.demand_mshr_miss_rate::.cpu.inst     0.000009                       # mshr miss rate for demand accesses
system.cpu.icache.demand_mshr_miss_rate::total     0.000009                       # mshr miss rate for demand accesses
system.cpu.icache.overall_mshr_miss_rate::.cpu.inst     0.000009                       # mshr miss rate for overall accesses
system.cpu.icache.overall_mshr_miss_rate::total     0.000009                       # mshr miss rate for overall accesses
system.cpu.icache.demand_avg_mshr_miss_latency::.cpu.inst 116013.986014                       # average overall mshr miss latency
system.cpu.icache.demand_avg_mshr_miss_latency::total 116013.986014                       # average overall mshr miss latency
system.cpu.icache.overall_avg_mshr_miss_latency::.cpu.inst 116013.986014                       # average overall mshr miss latency
system.cpu.icache.overall_avg_mshr_miss_latency::total 116013.986014                       # average overall mshr miss latency
system.cpu.icache.replacements                     38                       # number of replacements
system.cpu.icache.ReadReq_hits::.cpu.inst     32004709                       # number of ReadReq hits
system.cpu.icache.ReadReq_hits::total        32004709                       # number of ReadReq hits
system.cpu.icache.ReadReq_misses::.cpu.inst          286                       # number of ReadReq misses
system.cpu.icache.ReadReq_misses::total           286                       # number of ReadReq misses
system.cpu.icache.ReadReq_miss_latency::.cpu.inst     33752000                       # number of ReadReq miss cycles
system.cpu.icache.ReadReq_miss_latency::total     33752000                       # number of ReadReq miss cycles
system.cpu.icache.ReadReq_accesses::.cpu.inst     32004995                       # number of ReadReq accesses(hits+misses)
system.cpu.icache.ReadReq_accesses::total     32004995                       # number of ReadReq accesses(hits+misses)
system.cpu.icache.ReadReq_miss_rate::.cpu.inst     0.000009                       # miss rate for ReadReq accesses
system.cpu.icache.ReadReq_miss_rate::total     0.000009                       # miss rate for ReadReq accesses
system.cpu.icache.ReadReq_avg_miss_latency::.cpu.inst 118013.986014                       # average ReadReq miss latency
system.cpu.icache.ReadReq_avg_miss_latency::total 118013.986014                       # average ReadReq miss latency
system.cpu.icache.ReadReq_mshr_misses::.cpu.inst          286                       # number of ReadReq MSHR misses
system.cpu.icache.ReadReq_mshr_misses::total          286                       # number of ReadReq MSHR misses
system.cpu.icache.ReadReq_mshr_miss_latency::.cpu.inst     33180000                       # number of ReadReq MSHR miss cycles
system.cpu.icache.ReadReq_mshr_miss_latency::total     33180000                       # number of ReadReq MSHR miss cycles
system.cpu.icache.ReadReq_mshr_miss_rate::.cpu.inst     0.000009                       # mshr miss rate for ReadReq accesses
system.cpu.icache.ReadReq_mshr_miss_rate::total     0.000009                       # mshr miss rate for ReadReq accesses
system.cpu.icache.ReadReq_avg_mshr_miss_latency::.cpu.inst 116013.986014                       # average ReadReq mshr miss latency
system.cpu.icache.ReadReq_avg_mshr_miss_latency::total 116013.986014                       # average ReadReq mshr miss latency
system.cpu.icache.power_state.pwrStateResidencyTicks::UNDEFINED 371487022000                       # Cumulative time (in ticks) in various power states
system.cpu.icache.tags.tagsinuse           213.614216                       # Cycle average of tags in use
system.cpu.icache.tags.total_refs            32004995                       # Total number of references to valid blocks.
system.cpu.icache.tags.sampled_refs               286                       # Sample count of references to valid blocks.
system.cpu.icache.tags.avg_refs          111905.576923                       # Average number of references to valid blocks.
system.cpu.icache.tags.warmup_cycle            123000                       # Cycle when the warmup percentage was hit.
system.cpu.icache.tags.occ_blocks::.cpu.inst   213.614216                       # Average occupied blocks per requestor
system.cpu.icache.tags.occ_percent::.cpu.inst     0.417215                       # Average percentage of cache occupancy
system.cpu.icache.tags.occ_percent::total     0.417215                       # Average percentage of cache occupancy
system.cpu.icache.tags.occ_task_id_blocks::1024          248                       # Occupied blocks per task id
system.cpu.icache.tags.age_task_id_blocks_1024::4          248                       # Occupied blocks per task id
system.cpu.icache.tags.occ_task_id_percent::1024     0.484375                       # Percentage of cache occupancy per task id
system.cpu.icache.tags.tag_accesses          32005281                       # Number of tag accesses
system.cpu.icache.tags.data_accesses         32005281                       # Number of data accesses
system.cpu.icache.tags.power_state.pwrStateResidencyTicks::UNDEFINED 371487022000                       # Cumulative time (in ticks) in various power states
system.cpu.itb.instHits                             0                       # ITB inst hits
system.cpu.itb.instMisses                           0                       # ITB inst misses
system.cpu.itb.readHits                             0                       # DTB read hits
system.cpu.itb.readMisses                           0                       # DTB read misses
system.cpu.itb.writeHits                            0                       # DTB write hits
system.cpu.itb.writeMisses                          0                       # DTB write misses
system.cpu.itb.inserts                              0                       # Number of times an entry is inserted into the TLB
system.cpu.itb.flushTlb                             0                       # Number of times complete TLB was flushed
system.cpu.itb.flushTlbMva                          0                       # Number of times TLB was flushed by MVA
system.cpu.itb.flushTlbMvaAsid                      0                       # Number of times TLB was flushed by MVA & ASID
system.cpu.itb.flushTlbAsid                         0                       # Number of times TLB was flushed by ASID
system.cpu.itb.flushedEntries                       0                       # Number of entries that have been flushed from TLB
system.cpu.itb.alignFaults                          0                       # Number of TLB faults due to alignment restrictions
system.cpu.itb.prefetchFaults                       0                       # Number of TLB faults due to prefetch
system.cpu.itb.domainFaults                         0                       # Number of TLB faults due to domain restrictions
system.cpu.itb.permsFaults                          0                       # Number of TLB faults due to permissions restrictions
system.cpu.itb.readAccesses                         0                       # DTB read accesses
system.cpu.itb.writeAccesses                        0                       # DTB write accesses
system.cpu.itb.instAccesses                         0                       # ITB inst accesses
system.cpu.itb.hits                                 0                       # Total TLB (inst and data) hits
system.cpu.itb.misses                               0                       # Total TLB (inst and data) misses
system.cpu.itb.accesses                             0                       # Total TLB (inst and data) accesses
system.cpu.itb.stage2_mmu.stage2_tlb.instHits            0                       # ITB inst hits
system.cpu.itb.stage2_mmu.stage2_tlb.instMisses            0                       # ITB inst misses
system.cpu.itb.stage2_mmu.stage2_tlb.readHits            0                       # DTB read hits
system.cpu.itb.stage2_mmu.stage2_tlb.readMisses            0                       # DTB read misses
system.cpu.itb.stage2_mmu.stage2_tlb.writeHits            0                       # DTB write hits
system.cpu.itb.stage2_mmu.stage2_tlb.writeMisses            0                       # DTB write misses
system.cpu.itb.stage2_mmu.stage2_tlb.inserts            0                       # Number of times an entry is inserted into the TLB
system.cpu.itb.stage2_mmu.stage2_tlb.flushTlb            0                       # Number of times complete TLB was flushed
system.cpu.itb.stage2_mmu.stage2_tlb.flushTlbMva            0                       # Number of times TLB was flushed by MVA
system.cpu.itb.stage2_mmu.stage2_tlb.flushTlbMvaAsid            0                       # Number of times TLB was flushed by MVA & ASID
system.cpu.itb.stage2_mmu.stage2_tlb.flushTlbAsid            0                       # Number of times TLB was flushed by ASID
system.cpu.itb.stage2_mmu.stage2_tlb.flushedEntries            0                       # Number of entries that have been flushed from TLB
system.cpu.itb.stage2_mmu.stage2_tlb.alignFaults            0                       # Number of TLB faults due to alignment restrictions
system.cpu.itb.stage2_mmu.stage2_tlb.prefetchFaults            0                       # Number of TLB faults due to prefetch
system.cpu.itb.stage2_mmu.stage2_tlb.domainFaults            0                       # Number of TLB faults due to domain restrictions
system.cpu.itb.stage2_mmu.stage2_tlb.permsFaults            0                       # Number of TLB faults due to permissions restrictions
system.cpu.itb.stage2_mmu.stage2_tlb.readAccesses            0                       # DTB read accesses
system.cpu.itb.stage2_mmu.stage2_tlb.writeAccesses            0                       # DTB write accesses
system.cpu.itb.stage2_mmu.stage2_tlb.instAccesses            0                       # ITB inst accesses
system.cpu.itb.stage2_mmu.stage2_tlb.hits            0                       # Total TLB (inst and data) hits
system.cpu.itb.stage2_mmu.stage2_tlb.misses            0                       # Total TLB (inst and data) misses
system.cpu.itb.stage2_mmu.stage2_tlb.accesses            0                       # Total TLB (inst and data) accesses
system.cpu.itb.stage2_mmu.stage2_tlb.walker.walks            0                       # Table walker walks requested
system.cpu.itb.stage2_mmu.stage2_tlb.walker.requestOrigin_Requested::Data            0                       # Table walker requests started/completed, data/inst
system.cpu.itb.stage2_mmu.stage2_tlb.walker.requestOrigin_Requested::Inst            0                       # Table walker requests started/completed, data/inst
system.cpu.itb.stage2_mmu.stage2_tlb.walker.requestOrigin_Requested::total            0                       # Table walker requests started/completed, data/inst
system.cpu.itb.stage2_mmu.stage2_tlb.walker.requestOrigin_Completed::Data            0                       # Table walker requests started/completed, data/inst
system.cpu.itb.stage2_mmu.stage2_tlb.walker.requestOrigin_Completed::Inst            0                       # Table walker requests started/completed, data/inst
system.cpu.itb.stage2_mmu.stage2_tlb.walker.requestOrigin_Completed::total            0                       # Table walker requests started/completed, data/inst
system.cpu.itb.stage2_mmu.stage2_tlb.walker.requestOrigin::total            0                       # Table walker requests started/completed, data/inst
system.cpu.itb.stage2_mmu.stage2_tlb.walker.power_state.pwrStateResidencyTicks::UNDEFINED 371487022000                       # Cumulative time (in ticks) in various power states
system.cpu.itb.walker.walks                         0                       # Table walker walks requested
system.cpu.itb.walker.requestOrigin_Requested::Data            0                       # Table walker requests started/completed, data/inst
system.cpu.itb.walker.requestOrigin_Requested::Inst            0                       # Table walker requests started/completed, data/inst
system.cpu.itb.walker.requestOrigin_Requested::total            0                       # Table walker requests started/completed, data/inst
system.cpu.itb.walker.requestOrigin_Completed::Data            0                       # Table walker requests started/completed, data/inst
system.cpu.itb.walker.requestOrigin_Completed::Inst            0                       # Table walker requests started/completed, data/inst
system.cpu.itb.walker.requestOrigin_Completed::total            0                       # Table walker requests started/completed, data/inst
system.cpu.itb.walker.requestOrigin::total            0                       # Table walker requests started/completed, data/inst
system.cpu.itb.walker.power_state.pwrStateResidencyTicks::UNDEFINED 371487022000                       # Cumulative time (in ticks) in various power states
system.cpu.power_state.pwrStateResidencyTicks::ON 371487022000                       # Cumulative time (in ticks) in various power states
system.cpu.thread_0.numInsts                100000001                       # Number of Instructions committed
system.cpu.thread_0.numOps                  184218784                       # Number of Ops committed
system.cpu.thread_0.numMemRefs                      0                       # Number of Memory References
system.cpu_clk_domain.clock                      1000                       # Clock period in ticks
system.cpu_voltage_domain.voltage                   1                       # Voltage in Volts
system.l2.demand_hits::.cpu.inst                   21                       # number of demand (read+write) hits
system.l2.demand_hits::.cpu.data                  783                       # number of demand (read+write) hits
system.l2.demand_hits::total                      804                       # number of demand (read+write) hits
system.l2.overall_hits::.cpu.inst                  21                       # number of overall hits
system.l2.overall_hits::.cpu.data                 783                       # number of overall hits
system.l2.overall_hits::total                     804                       # number of overall hits
system.l2.demand_misses::.cpu.inst                265                       # number of demand (read+write) misses
system.l2.demand_misses::.cpu.data            1316034                       # number of demand (read+write) misses
system.l2.demand_misses::total                1316299                       # number of demand (read+write) misses
system.l2.overall_misses::.cpu.inst               265                       # number of overall misses
system.l2.overall_misses::.cpu.data           1316034                       # number of overall misses
system.l2.overall_misses::total               1316299                       # number of overall misses
system.l2.demand_miss_latency::.cpu.inst     31761000                       # number of demand (read+write) miss cycles
system.l2.demand_miss_latency::.cpu.data 164062248000                       # number of demand (read+write) miss cycles
system.l2.demand_miss_latency::total     164094009000                       # number of demand (read+write) miss cycles
system.l2.overall_miss_latency::.cpu.inst     31761000                       # number of overall miss cycles
system.l2.overall_miss_latency::.cpu.data 164062248000                       # number of overall miss cycles
system.l2.overall_miss_latency::total    164094009000                       # number of overall miss cycles
system.l2.demand_accesses::.cpu.inst              286                       # number of demand (read+write) accesses
system.l2.demand_accesses::.cpu.data          1316817                       # number of demand (read+write) accesses
system.l2.demand_accesses::total              1317103                       # number of demand (read+write) accesses
system.l2.overall_accesses::.cpu.inst             286                       # number of overall (read+write) accesses
system.l2.overall_accesses::.cpu.data         1316817                       # number of overall (read+write) accesses
system.l2.overall_accesses::total             1317103                       # number of overall (read+write) accesses
system.l2.demand_miss_rate::.cpu.inst        0.926573                       # miss rate for demand accesses
system.l2.demand_miss_rate::.cpu.data        0.999405                       # miss rate for demand accesses
system.l2.demand_miss_rate::total            0.999390                       # miss rate for demand accesses
system.l2.overall_miss_rate::.cpu.inst       0.926573                       # miss rate for overall accesses
system.l2.overall_miss_rate::.cpu.data       0.999405                       # miss rate for overall accesses
system.l2.overall_miss_rate::total           0.999390                       # miss rate for overall accesses
system.l2.demand_avg_miss_latency::.cpu.inst 119852.830189                       # average overall miss latency
system.l2.demand_avg_miss_latency::.cpu.data 124664.140896                       # average overall miss latency
system.l2.demand_avg_miss_latency::total 124663.172273                       # average overall miss latency
system.l2.overall_avg_miss_latency::.cpu.inst 119852.830189                       # average overall miss latency
system.l2.overall_avg_miss_latency::.cpu.data 124664.140896                       # average overall miss latency
system.l2.overall_avg_miss_latency::total 124663.172273                       # average overall miss latency
system.l2.blocked_cycles::no_mshrs                  0                       # number of cycles access was blocked
system.l2.blocked_cycles::no_targets                0                       # number of cycles access was blocked
system.l2.blocked::no_mshrs                         0                       # number of cycles access was blocked
system.l2.blocked::no_targets                       0                       # number of cycles access was blocked
system.l2.avg_blocked_cycles::no_mshrs            nan                       # average number of cycles each access was blocked
system.l2.avg_blocked_cycles::no_targets          nan                       # average number of cycles each access was blocked
system.l2.writebacks::.writebacks             1299512                       # number of writebacks
system.l2.writebacks::total                   1299512                       # number of writebacks
system.l2.demand_mshr_hits::.cpu.inst               1                       # number of demand (read+write) MSHR hits
system.l2.demand_mshr_hits::.cpu.data               7                       # number of demand (read+write) MSHR hits
system.l2.demand_mshr_hits::total                   8                       # number of demand (read+write) MSHR hits
system.l2.overall_mshr_hits::.cpu.inst              1                       # number of overall MSHR hits
system.l2.overall_mshr_hits::.cpu.data              7                       # number of overall MSHR hits
system.l2.overall_mshr_hits::total                  8                       # number of overall MSHR hits
system.l2.demand_mshr_misses::.cpu.inst           264                       # number of demand (read+write) MSHR misses
system.l2.demand_mshr_misses::.cpu.data       1316027                       # number of demand (read+write) MSHR misses
system.l2.demand_mshr_misses::total           1316291                       # number of demand (read+write) MSHR misses
system.l2.overall_mshr_misses::.cpu.inst          264                       # number of overall MSHR misses
system.l2.overall_mshr_misses::.cpu.data      1316027                       # number of overall MSHR misses
system.l2.overall_mshr_misses::total          1316291                       # number of overall MSHR misses
system.l2.demand_mshr_miss_latency::.cpu.inst     26377000                       # number of demand (read+write) MSHR miss cycles
system.l2.demand_mshr_miss_latency::.cpu.data 137741020000                       # number of demand (read+write) MSHR miss cycles
system.l2.demand_mshr_miss_latency::total 137767397000                       # number of demand (read+write) MSHR miss cycles
system.l2.overall_mshr_miss_latency::.cpu.inst     26377000                       # number of overall MSHR miss cycles
system.l2.overall_mshr_miss_latency::.cpu.data 137741020000                       # number of overall MSHR miss cycles
system.l2.overall_mshr_miss_latency::total 137767397000                       # number of overall MSHR miss cycles
system.l2.demand_mshr_miss_rate::.cpu.inst     0.923077                       # mshr miss rate for demand accesses
system.l2.demand_mshr_miss_rate::.cpu.data     0.999400                       # mshr miss rate for demand accesses
system.l2.demand_mshr_miss_rate::total       0.999383                       # mshr miss rate for demand accesses
system.l2.overall_mshr_miss_rate::.cpu.inst     0.923077                       # mshr miss rate for overall accesses
system.l2.overall_mshr_miss_rate::.cpu.data     0.999400                       # mshr miss rate for overall accesses
system.l2.overall_mshr_miss_rate::total      0.999383                       # mshr miss rate for overall accesses
system.l2.demand_avg_mshr_miss_latency::.cpu.inst 99912.878788                       # average overall mshr miss latency
system.l2.demand_avg_mshr_miss_latency::.cpu.data 104664.281204                       # average overall mshr miss latency
system.l2.demand_avg_mshr_miss_latency::total 104663.328246                       # average overall mshr miss latency
system.l2.overall_avg_mshr_miss_latency::.cpu.inst 99912.878788                       # average overall mshr miss latency
system.l2.overall_avg_mshr_miss_latency::.cpu.data 104664.281204                       # average overall mshr miss latency
system.l2.overall_avg_mshr_miss_latency::total 104663.328246                       # average overall mshr miss latency
system.l2.replacements                        1299915                       # number of replacements
system.l2.WritebackDirty_hits::.writebacks      1316063                       # number of WritebackDirty hits
system.l2.WritebackDirty_hits::total          1316063                       # number of WritebackDirty hits
system.l2.WritebackDirty_accesses::.writebacks      1316063                       # number of WritebackDirty accesses(hits+misses)
system.l2.WritebackDirty_accesses::total      1316063                       # number of WritebackDirty accesses(hits+misses)
system.l2.WritebackClean_hits::.writebacks           36                       # number of WritebackClean hits
system.l2.WritebackClean_hits::total               36                       # number of WritebackClean hits
system.l2.WritebackClean_accesses::.writebacks           36                       # number of WritebackClean accesses(hits+misses)
system.l2.WritebackClean_accesses::total           36                       # number of WritebackClean accesses(hits+misses)
system.l2.ReadExReq_hits::.cpu.data               399                       # number of ReadExReq hits
system.l2.ReadExReq_hits::total                   399                       # number of ReadExReq hits
system.l2.ReadExReq_misses::.cpu.data         1315878                       # number of ReadExReq misses
system.l2.ReadExReq_misses::total             1315878                       # number of ReadExReq misses
system.l2.ReadExReq_miss_latency::.cpu.data 164041938000                       # number of ReadExReq miss cycles
system.l2.ReadExReq_miss_latency::total  164041938000                       # number of ReadExReq miss cycles
system.l2.ReadExReq_accesses::.cpu.data       1316277                       # number of ReadExReq accesses(hits+misses)
system.l2.ReadExReq_accesses::total           1316277                       # number of ReadExReq accesses(hits+misses)
system.l2.ReadExReq_miss_rate::.cpu.data     0.999697                       # miss rate for ReadExReq accesses
system.l2.ReadExReq_miss_rate::total         0.999697                       # miss rate for ReadExReq accesses
system.l2.ReadExReq_avg_miss_latency::.cpu.data 124663.485521                       # average ReadExReq miss latency
system.l2.ReadExReq_avg_miss_latency::total 124663.485521                       # average ReadExReq miss latency
system.l2.ReadExReq_mshr_misses::.cpu.data      1315878                       # number of ReadExReq MSHR misses
system.l2.ReadExReq_mshr_misses::total        1315878                       # number of ReadExReq MSHR misses
system.l2.ReadExReq_mshr_miss_latency::.cpu.data 137724378000                       # number of ReadExReq MSHR miss cycles
system.l2.ReadExReq_mshr_miss_latency::total 137724378000                       # number of ReadExReq MSHR miss cycles
system.l2.ReadExReq_mshr_miss_rate::.cpu.data     0.999697                       # mshr miss rate for ReadExReq accesses
system.l2.ReadExReq_mshr_miss_rate::total     0.999697                       # mshr miss rate for ReadExReq accesses
system.l2.ReadExReq_avg_mshr_miss_latency::.cpu.data 104663.485521                       # average ReadExReq mshr miss latency
system.l2.ReadExReq_avg_mshr_miss_latency::total 104663.485521                       # average ReadExReq mshr miss latency
system.l2.ReadCleanReq_hits::.cpu.inst             21                       # number of ReadCleanReq hits
system.l2.ReadCleanReq_hits::total                 21                       # number of ReadCleanReq hits
system.l2.ReadCleanReq_misses::.cpu.inst          265                       # number of ReadCleanReq misses
system.l2.ReadCleanReq_misses::total              265                       # number of ReadCleanReq misses
system.l2.ReadCleanReq_miss_latency::.cpu.inst     31761000                       # number of ReadCleanReq miss cycles
system.l2.ReadCleanReq_miss_latency::total     31761000                       # number of ReadCleanReq miss cycles
system.l2.ReadCleanReq_accesses::.cpu.inst          286                       # number of ReadCleanReq accesses(hits+misses)
system.l2.ReadCleanReq_accesses::total            286                       # number of ReadCleanReq accesses(hits+misses)
system.l2.ReadCleanReq_miss_rate::.cpu.inst     0.926573                       # miss rate for ReadCleanReq accesses
system.l2.ReadCleanReq_miss_rate::total      0.926573                       # miss rate for ReadCleanReq accesses
system.l2.ReadCleanReq_avg_miss_latency::.cpu.inst 119852.830189                       # average ReadCleanReq miss latency
system.l2.ReadCleanReq_avg_miss_latency::total 119852.830189                       # average ReadCleanReq miss latency
system.l2.ReadCleanReq_mshr_hits::.cpu.inst            1                       # number of ReadCleanReq MSHR hits
system.l2.ReadCleanReq_mshr_hits::total             1                       # number of ReadCleanReq MSHR hits
system.l2.ReadCleanReq_mshr_misses::.cpu.inst          264                       # number of ReadCleanReq MSHR misses
system.l2.ReadCleanReq_mshr_misses::total          264                       # number of ReadCleanReq MSHR misses
system.l2.ReadCleanReq_mshr_miss_latency::.cpu.inst     26377000                       # number of ReadCleanReq MSHR miss cycles
system.l2.ReadCleanReq_mshr_miss_latency::total     26377000                       # number of ReadCleanReq MSHR miss cycles
system.l2.ReadCleanReq_mshr_miss_rate::.cpu.inst     0.923077                       # mshr miss rate for ReadCleanReq accesses
system.l2.ReadCleanReq_mshr_miss_rate::total     0.923077                       # mshr miss rate for ReadCleanReq accesses
system.l2.ReadCleanReq_avg_mshr_miss_latency::.cpu.inst 99912.878788                       # average ReadCleanReq mshr miss latency
system.l2.ReadCleanReq_avg_mshr_miss_latency::total 99912.878788                       # average ReadCleanReq mshr miss latency
system.l2.ReadSharedReq_hits::.cpu.data           384                       # number of ReadSharedReq hits
system.l2.ReadSharedReq_hits::total               384                       # number of ReadSharedReq hits
system.l2.ReadSharedReq_misses::.cpu.data          156                       # number of ReadSharedReq misses
system.l2.ReadSharedReq_misses::total             156                       # number of ReadSharedReq misses
system.l2.ReadSharedReq_miss_latency::.cpu.data     20310000                       # number of ReadSharedReq miss cycles
system.l2.ReadSharedReq_miss_latency::total     20310000                       # number of ReadSharedReq miss cycles
system.l2.ReadSharedReq_accesses::.cpu.data          540                       # number of ReadSharedReq accesses(hits+misses)
system.l2.ReadSharedReq_accesses::total           540                       # number of ReadSharedReq accesses(hits+misses)
system.l2.ReadSharedReq_miss_rate::.cpu.data     0.288889                       # miss rate for ReadSharedReq accesses
system.l2.ReadSharedReq_miss_rate::total     0.288889                       # miss rate for ReadSharedReq accesses
system.l2.ReadSharedReq_avg_miss_latency::.cpu.data 130192.307692                       # average ReadSharedReq miss latency
system.l2.ReadSharedReq_avg_miss_latency::total 130192.307692                       # average ReadSharedReq miss latency
system.l2.ReadSharedReq_mshr_hits::.cpu.data            7                       # number of ReadSharedReq MSHR hits
system.l2.ReadSharedReq_mshr_hits::total            7                       # number of ReadSharedReq MSHR hits
system.l2.ReadSharedReq_mshr_misses::.cpu.data          149                       # number of ReadSharedReq MSHR misses
system.l2.ReadSharedReq_mshr_misses::total          149                       # number of ReadSharedReq MSHR misses
system.l2.ReadSharedReq_mshr_miss_latency::.cpu.data     16642000                       # number of ReadSharedReq MSHR miss cycles
system.l2.ReadSharedReq_mshr_miss_latency::total     16642000                       # number of ReadSharedReq MSHR miss cycles
system.l2.ReadSharedReq_mshr_miss_rate::.cpu.data     0.275926                       # mshr miss rate for ReadSharedReq accesses
system.l2.ReadSharedReq_mshr_miss_rate::total     0.275926                       # mshr miss rate for ReadSharedReq accesses
system.l2.ReadSharedReq_avg_mshr_miss_latency::.cpu.data 111691.275168                       # average ReadSharedReq mshr miss latency
system.l2.ReadSharedReq_avg_mshr_miss_latency::total 111691.275168                       # average ReadSharedReq mshr miss latency
system.l2.power_state.pwrStateResidencyTicks::UNDEFINED 371487022000                       # Cumulative time (in ticks) in various power states
system.l2.tags.tagsinuse                 16050.825366                       # Cycle average of tags in use
system.l2.tags.total_refs                     2633374                       # Total number of references to valid blocks.
system.l2.tags.sampled_refs                   1316299                       # Sample count of references to valid blocks.
system.l2.tags.avg_refs                      2.000590                       # Average number of references to valid blocks.
system.l2.tags.warmup_cycle                    102000                       # Cycle when the warmup percentage was hit.
system.l2.tags.occ_blocks::.writebacks       0.092939                       # Average occupied blocks per requestor
system.l2.tags.occ_blocks::.cpu.inst         5.703012                       # Average occupied blocks per requestor
system.l2.tags.occ_blocks::.cpu.data     16045.029415                       # Average occupied blocks per requestor
system.l2.tags.occ_percent::.writebacks      0.000006                       # Average percentage of cache occupancy
system.l2.tags.occ_percent::.cpu.inst        0.000348                       # Average percentage of cache occupancy
system.l2.tags.occ_percent::.cpu.data        0.979311                       # Average percentage of cache occupancy
system.l2.tags.occ_percent::total            0.979665                       # Average percentage of cache occupancy
system.l2.tags.occ_task_id_blocks::1024         16384                       # Occupied blocks per task id
system.l2.tags.age_task_id_blocks_1024::0           37                       # Occupied blocks per task id
system.l2.tags.age_task_id_blocks_1024::1          323                       # Occupied blocks per task id
system.l2.tags.age_task_id_blocks_1024::2         3236                       # Occupied blocks per task id
system.l2.tags.age_task_id_blocks_1024::3        12788                       # Occupied blocks per task id
system.l2.tags.occ_task_id_percent::1024            1                       # Percentage of cache occupancy per task id
system.l2.tags.tag_accesses                  43450411                       # Number of tag accesses
system.l2.tags.data_accesses                 43450411                       # Number of data accesses
system.l2.tags.power_state.pwrStateResidencyTicks::UNDEFINED 371487022000                       # Cumulative time (in ticks) in various power states
system.mem_ctrls.avgPriority_.writebacks::samples   5198048.00                       # Average QoS priority value for accepted requests
system.mem_ctrls.avgPriority_.cpu.inst::samples      1056.00                       # Average QoS priority value for accepted requests
system.mem_ctrls.avgPriority_.cpu.data::samples   5264108.00                       # Average QoS priority value for accepted requests
system.mem_ctrls.priorityMinLatency      0.000000018750                       # per QoS priority minimum request to response latency (s)
system.mem_ctrls.priorityMaxLatency      0.000274744750                       # per QoS priority maximum request to response latency (s)
system.mem_ctrls.numReadWriteTurnArounds       261763                       # Number of turnarounds from READ to WRITE
system.mem_ctrls.numWriteReadTurnArounds       261763                       # Number of turnarounds from WRITE to READ
system.mem_ctrls.numStayReadState             7947206                       # Number of times bus staying in READ state
system.mem_ctrls.numStayWriteState            4964562                       # Number of times bus staying in WRITE state
system.mem_ctrls.readReqs                     1316291                       # Number of read requests accepted
system.mem_ctrls.writeReqs                    1299512                       # Number of write requests accepted
system.mem_ctrls.readBursts                   5265164                       # Number of controller read bursts, including those serviced by the write queue
system.mem_ctrls.writeBursts                  5198048                       # Number of controller write bursts, including those merged in the write queue
system.mem_ctrls.servicedByWrQ                      0                       # Number of controller read bursts serviced by the write queue
system.mem_ctrls.mergedWrBursts                     0                       # Number of controller write bursts merged with an existing one
system.mem_ctrls.neitherReadNorWriteReqs            0                       # Number of requests that are neither read nor write
system.mem_ctrls.avgRdQLen                       4.01                       # Average read queue length when enqueuing
system.mem_ctrls.avgWrQLen                      26.69                       # Average write queue length when enqueuing
system.mem_ctrls.numRdRetry                         0                       # Number of times read queue was full causing retry
system.mem_ctrls.numWrRetry                         0                       # Number of times write queue was full causing retry
system.mem_ctrls.readPktSize::0                     0                       # Read request sizes (log2)
system.mem_ctrls.readPktSize::1                     0                       # Read request sizes (log2)
system.mem_ctrls.readPktSize::2                     0                       # Read request sizes (log2)
system.mem_ctrls.readPktSize::3                     0                       # Read request sizes (log2)
system.mem_ctrls.readPktSize::4                     0                       # Read request sizes (log2)
system.mem_ctrls.readPktSize::5                     0                       # Read request sizes (log2)
system.mem_ctrls.readPktSize::6               5265164                       # Read request sizes (log2)
system.mem_ctrls.readPktSize::7                     0                       # Read request sizes (log2)
system.mem_ctrls.readPktSize::8                     0                       # Read request sizes (log2)
system.mem_ctrls.writePktSize::0                    0                       # Write request sizes (log2)
system.mem_ctrls.writePktSize::1                    0                       # Write request sizes (log2)
system.mem_ctrls.writePktSize::2                    0                       # Write request sizes (log2)
system.mem_ctrls.writePktSize::3                    0                       # Write request sizes (log2)
system.mem_ctrls.writePktSize::4                    0                       # Write request sizes (log2)
system.mem_ctrls.writePktSize::5                    0                       # Write request sizes (log2)
system.mem_ctrls.writePktSize::6              5198048                       # Write request sizes (log2)
system.mem_ctrls.writePktSize::7                    0                       # Write request sizes (log2)
system.mem_ctrls.writePktSize::8                    0                       # Write request sizes (log2)
system.mem_ctrls.rdQLenPdf::0                 1316060                       # What read queue length does an incoming req see
system.mem_ctrls.rdQLenPdf::1                 1316062                       # What read queue length does an incoming req see
system.mem_ctrls.rdQLenPdf::2                 1316160                       # What read queue length does an incoming req see
system.mem_ctrls.rdQLenPdf::3                 1316164                       # What read queue length does an incoming req see
system.mem_ctrls.rdQLenPdf::4                     227                       # What read queue length does an incoming req see
system.mem_ctrls.rdQLenPdf::5                     225                       # What read queue length does an incoming req see
system.mem_ctrls.rdQLenPdf::6                     127                       # What read queue length does an incoming req see
[...]
system.mem_ctrls.dram.bw_write::.writebacks    895522730                       # Write bandwidth from this memory (bytes/s)
system.mem_ctrls.dram.bw_write::total       895522730                       # Write bandwidth from this memory (bytes/s)
system.mem_ctrls.dram.bw_total::.writebacks    895522730                       # Total bandwidth to/from this memory (bytes/s)
system.mem_ctrls.dram.bw_total::.cpu.inst       181928                       # Total bandwidth to/from this memory (bytes/s)
system.mem_ctrls.dram.bw_total::.cpu.data    906903585                       # Total bandwidth to/from this memory (bytes/s)
system.mem_ctrls.dram.bw_total::total      1802608243                       # Total bandwidth to/from this memory (bytes/s)
system.mem_ctrls.dram.readBursts              5265164                       # Number of DRAM read bursts
system.mem_ctrls.dram.writeBursts             5198029                       # Number of DRAM write bursts
system.mem_ctrls.dram.perBankRdBursts::0       329000                       # Per bank write bursts
system.mem_ctrls.dram.perBankRdBursts::1       329216                       # Per bank write bursts
system.mem_ctrls.dram.perBankRdBursts::2       329192                       # Per bank write bursts
system.mem_ctrls.dram.perBankRdBursts::3       329144                       # Per bank write bursts
system.mem_ctrls.dram.perBankRdBursts::4       329064                       # Per bank write bursts
system.mem_ctrls.dram.perBankRdBursts::5       329144                       # Per bank write bursts
system.mem_ctrls.dram.perBankRdBursts::6       329156                       # Per bank write bursts
system.mem_ctrls.dram.perBankRdBursts::7       329084                       # Per bank write bursts
system.mem_ctrls.dram.perBankRdBursts::8       328928                       # Per bank write bursts
system.mem_ctrls.dram.perBankRdBursts::9       328916                       # Per bank write bursts
system.mem_ctrls.dram.perBankRdBursts::10       328952                       # Per bank write bursts
system.mem_ctrls.dram.perBankRdBursts::11       328976                       # Per bank write bursts
system.mem_ctrls.dram.perBankRdBursts::12       329152                       # Per bank write bursts
system.mem_ctrls.dram.perBankRdBursts::13       329120                       # Per bank write bursts
system.mem_ctrls.dram.perBankRdBursts::14       329108                       # Per bank write bursts
system.mem_ctrls.dram.perBankRdBursts::15       329012                       # Per bank write bursts
system.mem_ctrls.dram.perBankWrBursts::0       324776                       # Per bank write bursts
system.mem_ctrls.dram.perBankWrBursts::1       324956                       # Per bank write bursts
system.mem_ctrls.dram.perBankWrBursts::2       324969                       # Per bank write bursts
system.mem_ctrls.dram.perBankWrBursts::3       325008                       # Per bank write bursts
system.mem_ctrls.dram.perBankWrBursts::4       324916                       # Per bank write bursts
system.mem_ctrls.dram.perBankWrBursts::5       324972                       # Per bank write bursts
system.mem_ctrls.dram.perBankWrBursts::6       324968                       # Per bank write bursts
system.mem_ctrls.dram.perBankWrBursts::7       324948                       # Per bank write bursts
system.mem_ctrls.dram.perBankWrBursts::8       324740                       # Per bank write bursts
system.mem_ctrls.dram.perBankWrBursts::9       324736                       # Per bank write bursts
system.mem_ctrls.dram.perBankWrBursts::10       324736                       # Per bank write bursts
system.mem_ctrls.dram.perBankWrBursts::11       324812                       # Per bank write bursts
system.mem_ctrls.dram.perBankWrBursts::12       324900                       # Per bank write bursts
system.mem_ctrls.dram.perBankWrBursts::13       324892                       # Per bank write bursts
system.mem_ctrls.dram.perBankWrBursts::14       324844                       # Per bank write bursts
system.mem_ctrls.dram.perBankWrBursts::15       324856                       # Per bank write bursts
system.mem_ctrls.dram.totQLat            142668885000                       # Total ticks spent queuing
system.mem_ctrls.dram.totBusLat           26325820000                       # Total ticks spent in databus transfers
system.mem_ctrls.dram.totMemAccLat       241390710000                       # Total ticks spent from burst creation until serviced by the DRAM
system.mem_ctrls.dram.avgQLat                27096.76                       # Average queueing delay per DRAM burst
system.mem_ctrls.dram.avgBusLat               5000.00                       # Average bus latency per DRAM burst
system.mem_ctrls.dram.avgMemAccLat           45846.76                       # Average memory access latency per DRAM burst
system.mem_ctrls.dram.readRowHits             4743790                       # Number of row buffer hits during reads
system.mem_ctrls.dram.writeRowHits            4666471                       # Number of row buffer hits during writes
system.mem_ctrls.dram.readRowHitRate            90.10                       # Row buffer hit rate for reads
system.mem_ctrls.dram.writeRowHitRate           89.77                       # Row buffer hit rate for writes
system.mem_ctrls.dram.bytesPerActivate::samples      1052930                       # Bytes accessed per row activation
system.mem_ctrls.dram.bytesPerActivate::mean   635.980679                       # Bytes accessed per row activation
system.mem_ctrls.dram.bytesPerActivate::gmean   503.380082                       # Bytes accessed per row activation
system.mem_ctrls.dram.bytesPerActivate::stdev   373.159724                       # Bytes accessed per row activation
system.mem_ctrls.dram.bytesPerActivate::0-127        28050      2.66%      2.66% # Bytes accessed per row activation
system.mem_ctrls.dram.bytesPerActivate::128-255        21411      2.03%      4.70% # Bytes accessed per row activation
system.mem_ctrls.dram.bytesPerActivate::256-383       414631     39.38%     44.08% # Bytes accessed per row activation
system.mem_ctrls.dram.bytesPerActivate::384-511        10330      0.98%     45.06% # Bytes accessed per row activation
system.mem_ctrls.dram.bytesPerActivate::512-639        53202      5.05%     50.11% # Bytes accessed per row activation
system.mem_ctrls.dram.bytesPerActivate::640-767         8573      0.81%     50.92% # Bytes accessed per row activation
system.mem_ctrls.dram.bytesPerActivate::768-895        39231      3.73%     54.65% # Bytes accessed per row activation
system.mem_ctrls.dram.bytesPerActivate::896-1023        10319      0.98%     55.63% # Bytes accessed per row activation
system.mem_ctrls.dram.bytesPerActivate::1024-1151       467183     44.37%    100.00% # Bytes accessed per row activation
system.mem_ctrls.dram.bytesPerActivate::total      1052930                       # Bytes accessed per row activation
system.mem_ctrls.dram.bytesRead             336970496                       # Total number of bytes read from DRAM
system.mem_ctrls.dram.bytesWritten          332673856                       # Total number of bytes written to DRAM
system.mem_ctrls.dram.avgRdBW              907.085513                       # Average DRAM read bandwidth in MiBytes/s
system.mem_ctrls.dram.avgWrBW              895.519456                       # Average DRAM write bandwidth in MiBytes/s
system.mem_ctrls.dram.peakBW                 12800.00                       # Theoretical peak bandwidth in MiByte/s
system.mem_ctrls.dram.busUtil                   14.08                       # Data bus utilization in percentage
system.mem_ctrls.dram.busUtilRead                7.09                       # Data bus utilization in percentage for reads
system.mem_ctrls.dram.busUtilWrite               7.00                       # Data bus utilization in percentage for writes
system.mem_ctrls.dram.pageHitRate               89.94                       # Row buffer hit rate, read and write combined
system.mem_ctrls.dram.power_state.pwrStateResidencyTicks::UNDEFINED 371487022000                       # Cumulative time (in ticks) in various power states
system.mem_ctrls.dram.rank0.actEnergy      3759588420                       # Energy for activate commands per rank (pJ)
system.mem_ctrls.dram.rank0.preEnergy      1998261045                       # Energy for precharge commands per rank (pJ)
system.mem_ctrls.dram.rank0.readEnergy    18799620000                       # Energy for read commands per rank (pJ)
system.mem_ctrls.dram.rank0.writeEnergy   13569457860                       # Energy for write commands per rank (pJ)
system.mem_ctrls.dram.rank0.refreshEnergy 29324474400.000004                       # Energy for refresh commands per rank (pJ)
system.mem_ctrls.dram.rank0.actBackEnergy  84129297060                       # Energy for active background per rank (pJ)
system.mem_ctrls.dram.rank0.preBackEnergy  71805292800                       # Energy for precharge background per rank (pJ)
system.mem_ctrls.dram.rank0.actPowerDownEnergy            0                       # Energy for active power-down per rank (pJ)
system.mem_ctrls.dram.rank0.prePowerDownEnergy            0                       # Energy for precharge power-down per rank (pJ)
system.mem_ctrls.dram.rank0.selfRefreshEnergy            0                       # Energy for self refresh per rank (pJ)
system.mem_ctrls.dram.rank0.totalEnergy  223385991585                       # Total energy per rank (pJ)
system.mem_ctrls.dram.rank0.averagePower   601.329194                       # Core power per rank (mW)
system.mem_ctrls.dram.rank0.totalIdleTime            0                       # Total Idle time Per DRAM Rank
system.mem_ctrls.dram.rank0.pwrStateTime::IDLE 182757517500                       # Time in different power states
system.mem_ctrls.dram.rank0.pwrStateTime::REF  12404600000                       # Time in different power states
system.mem_ctrls.dram.rank0.pwrStateTime::SREF            0                       # Time in different power states
system.mem_ctrls.dram.rank0.pwrStateTime::PRE_PDN            0                       # Time in different power states
system.mem_ctrls.dram.rank0.pwrStateTime::ACT 176324904500                       # Time in different power states
system.mem_ctrls.dram.rank0.pwrStateTime::ACT_PDN            0                       # Time in different power states
system.mem_ctrls.dram.rank1.actEnergy      3758346060                       # Energy for activate commands per rank (pJ)
system.mem_ctrls.dram.rank1.preEnergy      1997608305                       # Energy for precharge commands per rank (pJ)
system.mem_ctrls.dram.rank1.readEnergy    18793650960                       # Energy for read commands per rank (pJ)
system.mem_ctrls.dram.rank1.writeEnergy   13564253520                       # Energy for write commands per rank (pJ)
system.mem_ctrls.dram.rank1.refreshEnergy 29324474400.000004                       # Energy for refresh commands per rank (pJ)
system.mem_ctrls.dram.rank1.actBackEnergy  84122929590                       # Energy for active background per rank (pJ)
system.mem_ctrls.dram.rank1.preBackEnergy  71810654880                       # Energy for precharge background per rank (pJ)
system.mem_ctrls.dram.rank1.actPowerDownEnergy            0                       # Energy for active power-down per rank (pJ)
system.mem_ctrls.dram.rank1.prePowerDownEnergy            0                       # Energy for precharge power-down per rank (pJ)
system.mem_ctrls.dram.rank1.selfRefreshEnergy            0                       # Energy for self refresh per rank (pJ)
system.mem_ctrls.dram.rank1.totalEnergy  223371917715                       # Total energy per rank (pJ)
system.mem_ctrls.dram.rank1.averagePower   601.291309                       # Core power per rank (mW)
system.mem_ctrls.dram.rank1.totalIdleTime            0                       # Total Idle time Per DRAM Rank
system.mem_ctrls.dram.rank1.pwrStateTime::IDLE 182771923250                       # Time in different power states
system.mem_ctrls.dram.rank1.pwrStateTime::REF  12404600000                       # Time in different power states
system.mem_ctrls.dram.rank1.pwrStateTime::SREF            0                       # Time in different power states
system.mem_ctrls.dram.rank1.pwrStateTime::PRE_PDN            0                       # Time in different power states
system.mem_ctrls.dram.rank1.pwrStateTime::ACT 176310498750                       # Time in different power states
system.mem_ctrls.dram.rank1.pwrStateTime::ACT_PDN            0                       # Time in different power states
system.mem_ctrls.power_state.pwrStateResidencyTicks::UNDEFINED 371487022000                       # Cumulative time (in ticks) in various power states
system.membus.trans_dist::ReadResp                413                       # Transaction distribution
system.membus.trans_dist::WritebackDirty      1299512                       # Transaction distribution
system.membus.trans_dist::CleanEvict              131                       # Transaction distribution
system.membus.trans_dist::ReadExReq           1315878                       # Transaction distribution
system.membus.trans_dist::ReadExResp          1315878                       # Transaction distribution
system.membus.trans_dist::ReadSharedReq           413                       # Transaction distribution
system.membus.pkt_count_system.l2.mem_side_port::system.mem_ctrls.port      3932225                       # Packet count per connected requestor and responder (bytes)
system.membus.pkt_count::total                3932225                       # Packet count per connected requestor and responder (bytes)
system.membus.pkt_size_system.l2.mem_side_port::system.mem_ctrls.port    669645568                       # Cumulative packet size per connected requestor and responder (bytes)
system.membus.pkt_size::total               669645568                       # Cumulative packet size per connected requestor and responder (bytes)
system.membus.snoops                                0                       # Total snoops (count)
system.membus.snoopTraffic                          0                       # Total snoop traffic (bytes)
system.membus.snoop_fanout::samples           1316291                       # Request fanout histogram
system.membus.snoop_fanout::mean                    0                       # Request fanout histogram
system.membus.snoop_fanout::stdev                   0                       # Request fanout histogram
system.membus.snoop_fanout::underflows              0      0.00%      0.00% # Request fanout histogram
system.membus.snoop_fanout::0                 1316291    100.00%    100.00% # Request fanout histogram
system.membus.snoop_fanout::1                       0      0.00%    100.00% # Request fanout histogram
system.membus.snoop_fanout::overflows               0      0.00%    100.00% # Request fanout histogram
system.membus.snoop_fanout::min_value               0                       # Request fanout histogram
system.membus.snoop_fanout::max_value               0                       # Request fanout histogram
system.membus.snoop_fanout::total             1316291                       # Request fanout histogram
system.membus.power_state.pwrStateResidencyTicks::UNDEFINED 371487022000                       # Cumulative time (in ticks) in various power states
system.membus.reqLayer0.occupancy         23408126000                       # Layer occupancy (ticks)
system.membus.reqLayer0.utilization               6.3                       # Layer utilization (%)
system.membus.respLayer1.occupancy        22792881000                       # Layer occupancy (ticks)
system.membus.respLayer1.utilization              6.1                       # Layer utilization (%)
system.tol2bus.trans_dist::ReadResp               826                       # Transaction distribution
system.tol2bus.trans_dist::WritebackDirty      2615575                       # Transaction distribution
system.tol2bus.trans_dist::WritebackClean           38                       # Transaction distribution
system.tol2bus.trans_dist::CleanEvict             645                       # Transaction distribution
system.tol2bus.trans_dist::ReadExReq          1316277                       # Transaction distribution
system.tol2bus.trans_dist::ReadExResp         1316277                       # Transaction distribution
system.tol2bus.trans_dist::ReadCleanReq           286                       # Transaction distribution
system.tol2bus.trans_dist::ReadSharedReq          540                       # Transaction distribution
system.tol2bus.pkt_count_system.cpu.icache.mem_side_port::system.l2.cpu_side_port          610                       # Packet count per connected requestor and responder (bytes)
system.tol2bus.pkt_count_system.cpu.dcache.mem_side_port::system.l2.cpu_side_port      3949939                       # Packet count per connected requestor and responder (bytes)
system.tol2bus.pkt_count::total               3950549                       # Packet count per connected requestor and responder (bytes)
system.tol2bus.pkt_size_system.cpu.icache.mem_side_port::system.l2.cpu_side_port        82944                       # Cumulative packet size per connected requestor and responder (bytes)
system.tol2bus.pkt_size_system.cpu.dcache.mem_side_port::system.l2.cpu_side_port    674017280                       # Cumulative packet size per connected requestor and responder (bytes)
system.tol2bus.pkt_size::total              674100224                       # Cumulative packet size per connected requestor and responder (bytes)
system.tol2bus.snoops                         1299915                       # Total snoops (count)
system.tol2bus.snoopTraffic                 332675072                       # Total snoop traffic (bytes)
system.tol2bus.snoop_fanout::samples          2617018                       # Request fanout histogram
system.tol2bus.snoop_fanout::mean            0.000128                       # Request fanout histogram
system.tol2bus.snoop_fanout::stdev           0.011330                       # Request fanout histogram
system.tol2bus.snoop_fanout::underflows             0      0.00%      0.00% # Request fanout histogram
system.tol2bus.snoop_fanout::0                2616682     99.99%     99.99% # Request fanout histogram
system.tol2bus.snoop_fanout::1                    336      0.01%    100.00% # Request fanout histogram
system.tol2bus.snoop_fanout::2                      0      0.00%    100.00% # Request fanout histogram
system.tol2bus.snoop_fanout::overflows              0      0.00%    100.00% # Request fanout histogram
system.tol2bus.snoop_fanout::min_value              0                       # Request fanout histogram
system.tol2bus.snoop_fanout::max_value              1                       # Request fanout histogram
system.tol2bus.snoop_fanout::total            2617018                       # Request fanout histogram
system.tol2bus.power_state.pwrStateResidencyTicks::UNDEFINED 371487022000                       # Cumulative time (in ticks) in various power states
system.tol2bus.reqLayer0.occupancy        13162254000                       # Layer occupancy (ticks)
system.tol2bus.reqLayer0.utilization              3.5                       # Layer utilization (%)
system.tol2bus.respLayer0.occupancy           2574999                       # Layer occupancy (ticks)
system.tol2bus.respLayer0.utilization             0.0                       # Layer utilization (%)
system.tol2bus.respLayer1.occupancy       11851359993                       # Layer occupancy (ticks)
system.tol2bus.respLayer1.utilization             3.2                       # Layer utilization (%)
system.voltage_domain.voltage                       1                       # Voltage in Volts

---------- End Simulation Statistics   ----------
