
---------- Begin Simulation Statistics ----------
final_tick                                80375723500                       # Number of ticks from beginning of simulation (restored from checkpoints and never reset)
host_inst_rate                                 197809                       # Simulator instruction rate (inst/s)
host_mem_usage                                 670988                       # Number of bytes of host memory used
host_op_rate                                   198198                       # Simulator op (including micro ops) rate (op/s)
host_seconds                                   505.54                       # Real time elapsed on the host
host_tick_rate                              158990526                       # Simulator tick rate (ticks/s)
sim_freq                                 1000000000000                       # Frequency of simulated ticks
sim_insts                                   100000001                       # Number of instructions simulated
sim_ops                                     100196356                       # Number of ops (including micro ops) simulated
sim_seconds                                  0.080376                       # Number of seconds simulated
sim_ticks                                 80375723500                       # Number of ticks simulated
system.cpu.committedInsts                   100000001                       # Number of instructions committed
system.cpu.committedOps                     100196356                       # Number of ops (including micro ops) committed
system.cpu.cpi                               1.607514                       # CPI: cycles per instruction
system.cpu.discardedOps                        189150                       # Number of ops (including micro ops) which were discarded before commit
system.cpu.idleCycles                        28302475                       # Total number of cycles that the object has spent stopped
system.cpu.ipc                               0.622078                       # IPC: instructions per cycle
system.cpu.numCycles                        160751447                       # number of cpu cycles simulated
system.cpu.numFetchSuspends                         0                       # Number of times Execute suspended instruction fetching
system.cpu.numWorkItemsCompleted                    0                       # number of work items this cpu completed
system.cpu.numWorkItemsStarted                      0                       # number of work items this cpu started
system.cpu.op_class_0::No_OpClass                   0      0.00%      0.00% # Class of committed instruction
system.cpu.op_class_0::IntAlu                46526863     46.44%     46.44% # Class of committed instruction
system.cpu.op_class_0::IntMult                  20723      0.02%     46.46% # Class of committed instruction
system.cpu.op_class_0::IntDiv                       0      0.00%     46.46% # Class of committed instruction
system.cpu.op_class_0::FloatAdd                     0      0.00%     46.46% # Class of committed instruction
system.cpu.op_class_0::FloatCmp                     0      0.00%     46.46% # Class of committed instruction
system.cpu.op_class_0::FloatCvt                     0      0.00%     46.46% # Class of committed instruction
system.cpu.op_class_0::FloatMult                    0      0.00%     46.46% # Class of committed instruction
system.cpu.op_class_0::FloatMultAcc                 0      0.00%     46.46% # Class of committed instruction
system.cpu.op_class_0::FloatDiv                     0      0.00%     46.46% # Class of committed instruction
system.cpu.op_class_0::FloatMisc                    0      0.00%     46.46% # Class of committed instruction
system.cpu.op_class_0::FloatSqrt                    0      0.00%     46.46% # Class of committed instruction
system.cpu.op_class_0::SimdAdd                      0      0.00%     46.46% # Class of committed instruction
system.cpu.op_class_0::SimdAddAcc                   0      0.00%     46.46% # Class of committed instruction
system.cpu.op_class_0::SimdAlu                      0      0.00%     46.46% # Class of committed instruction
system.cpu.op_class_0::SimdCmp                      0      0.00%     46.46% # Class of committed instruction
system.cpu.op_class_0::SimdCvt                      0      0.00%     46.46% # Class of committed instruction
system.cpu.op_class_0::SimdMisc                     0      0.00%     46.46% # Class of committed instruction
system.cpu.op_class_0::SimdMult                     0      0.00%     46.46% # Class of committed instruction
system.cpu.op_class_0::SimdMultAcc                  0      0.00%     46.46% # Class of committed instruction
system.cpu.op_class_0::SimdShift                    0      0.00%     46.46% # Class of committed instruction
system.cpu.op_class_0::SimdShiftAcc                 0      0.00%     46.46% # Class of committed instruction
system.cpu.op_class_0::SimdDiv                      0      0.00%     46.46% # Class of committed instruction
system.cpu.op_class_0::SimdSqrt                     0      0.00%     46.46% # Class of committed instruction
system.cpu.op_class_0::SimdFloatAdd                 0      0.00%     46.46% # Class of committed instruction
system.cpu.op_class_0::SimdFloatAlu                 0      0.00%     46.46% # Class of committed instruction
system.cpu.op_class_0::SimdFloatCmp                 0      0.00%     46.46% # Class of committed instruction
system.cpu.op_class_0::SimdFloatCvt                 0      0.00%     46.46% # Class of committed instruction
system.cpu.op_class_0::SimdFloatDiv                 0      0.00%     46.46% # Class of committed instruction
system.cpu.op_class_0::SimdFloatMisc               18      0.00%     46.46% # Class of committed instruction
system.cpu.op_class_0::SimdFloatMult                0      0.00%     46.46% # Class of committed instruction
system.cpu.op_class_0::SimdFloatMultAcc             0      0.00%     46.46% # Class of committed instruction
system.cpu.op_class_0::SimdFloatSqrt                0      0.00%     46.46% # Class of committed instruction
system.cpu.op_class_0::SimdReduceAdd                0      0.00%     46.46% # Class of committed instruction
system.cpu.op_class_0::SimdReduceAlu                0      0.00%     46.46% # Class of committed instruction
system.cpu.op_class_0::SimdReduceCmp                0      0.00%     46.46% # Class of committed instruction
system.cpu.op_class_0::SimdFloatReduceAdd            0      0.00%     46.46% # Class of committed instruction
system.cpu.op_class_0::SimdFloatReduceCmp            0      0.00%     46.46% # Class of committed instruction
system.cpu.op_class_0::SimdAes                      0      0.00%     46.46% # Class of committed instruction
system.cpu.op_class_0::SimdAesMix                   0      0.00%     46.46% # Class of committed instruction
system.cpu.op_class_0::SimdSha1Hash                 0      0.00%     46.46% # Class of committed instruction
system.cpu.op_class_0::SimdSha1Hash2                0      0.00%     46.46% # Class of committed instruction
system.cpu.op_class_0::SimdSha256Hash               0      0.00%     46.46% # Class of committed instruction
system.cpu.op_class_0::SimdSha256Hash2              0      0.00%     46.46% # Class of committed instruction
system.cpu.op_class_0::SimdShaSigma2                0      0.00%     46.46% # Class of committed instruction
system.cpu.op_class_0::SimdShaSigma3                0      0.00%     46.46% # Class of committed instruction
system.cpu.op_class_0::SimdPredAlu                  0      0.00%     46.46% # Class of committed instruction
system.cpu.op_class_0::MemRead               42690537     42.61%     89.06% # Class of committed instruction
system.cpu.op_class_0::MemWrite              10958215     10.94%    100.00% # Class of committed instruction
system.cpu.op_class_0::FloatMemRead                 0      0.00%    100.00% # Class of committed instruction
system.cpu.op_class_0::FloatMemWrite                0      0.00%    100.00% # Class of committed instruction
system.cpu.op_class_0::IprAccess                    0      0.00%    100.00% # Class of committed instruction
system.cpu.op_class_0::InstPrefetch                 0      0.00%    100.00% # Class of committed instruction
system.cpu.op_class_0::total                100196356                       # Class of committed instruction
system.cpu.tickCycles                       132448972                       # Number of cycles that the object actually ticked
system.cpu.workload.numSyscalls                    85                       # Number of system calls
system.membus.snoop_filter.hit_multi_requests            0                       # Number of requests hitting in the snoop filter with multiple (>1) holders of the requested data.
system.membus.snoop_filter.hit_multi_snoops            0                       # Number of snoops hitting in the snoop filter with multiple (>1) holders of the requested data.
system.membus.snoop_filter.hit_single_requests       114487                       # Number of requests hitting in the snoop filter with a single holder of the requested data.
system.membus.snoop_filter.hit_single_snoops            0                       # Number of snoops hitting in the snoop filter with a single holder of the requested data.
system.membus.snoop_filter.tot_requests        294506                       # Total number of requests made to the snoop filter.
system.membus.snoop_filter.tot_snoops               0                       # Total number of snoops made to the snoop filter.
system.tol2bus.snoop_filter.hit_multi_requests          281                       # Number of requests hitting in the snoop filter with multiple (>1) holders of the requested data.
system.tol2bus.snoop_filter.hit_multi_snoops            0                       # Number of snoops hitting in the snoop filter with multiple (>1) holders of the requested data.
system.tol2bus.snoop_filter.hit_single_requests       464168                       # Number of requests hitting in the snoop filter with a single holder of the requested data.
system.tol2bus.snoop_filter.hit_single_snoops          206                       # Number of snoops hitting in the snoop filter with a single holder of the requested data.
system.tol2bus.snoop_filter.tot_requests       930508                       # Total number of requests made to the snoop filter.
system.tol2bus.snoop_filter.tot_snoops            206                       # Total number of snoops made to the snoop filter.
system.clk_domain.clock                          1000                       # Clock period in ticks
system.cpu.branchPred.lookups                 4485436                       # Number of BP lookups
system.cpu.branchPred.condPredicted           3735245                       # Number of conditional branches predicted
system.cpu.branchPred.condIncorrect             80997                       # Number of conditional branches incorrect
system.cpu.branchPred.BTBLookups              2103659                       # Number of BTB lookups
system.cpu.branchPred.BTBHits                 2101686                       # Number of BTB hits
system.cpu.branchPred.BTBHitPct             99.906211                       # BTB Hit Percentage
system.cpu.branchPred.RASUsed                   65338                       # Number of times the RAS was used to get a target.
system.cpu.branchPred.RASIncorrect                 14                       # Number of incorrect RAS predictions.
system.cpu.branchPred.indirectLookups             683                       # Number of indirect predictor lookups.
system.cpu.branchPred.indirectHits                290                       # Number of indirect target hits.
system.cpu.branchPred.indirectMisses              393                       # Number of indirect misses.
system.cpu.branchPred.indirectMispredicted          168                       # Number of mispredicted indirect branches.
system.cpu.dcache.demand_hits::.cpu.data     51551400                       # number of demand (read+write) hits
system.cpu.dcache.demand_hits::total         51551400                       # number of demand (read+write) hits
system.cpu.dcache.overall_hits::.cpu.data     51551910                       # number of overall hits
system.cpu.dcache.overall_hits::total        51551910                       # number of overall hits
system.cpu.dcache.demand_misses::.cpu.data       516688                       # number of demand (read+write) misses
system.cpu.dcache.demand_misses::total         516688                       # number of demand (read+write) misses
system.cpu.dcache.overall_misses::.cpu.data       524597                       # number of overall misses
system.cpu.dcache.overall_misses::total        524597                       # number of overall misses
system.cpu.dcache.demand_miss_latency::.cpu.data  19958380000                       # number of demand (read+write) miss cycles
system.cpu.dcache.demand_miss_latency::total  19958380000                       # number of demand (read+write) miss cycles
system.cpu.dcache.overall_miss_latency::.cpu.data  19958380000                       # number of overall miss cycles
system.cpu.dcache.overall_miss_latency::total  19958380000                       # number of overall miss cycles
system.cpu.dcache.demand_accesses::.cpu.data     52068088                       # number of demand (read+write) accesses
system.cpu.dcache.demand_accesses::total     52068088                       # number of demand (read+write) accesses
system.cpu.dcache.overall_accesses::.cpu.data     52076507                       # number of overall (read+write) accesses
system.cpu.dcache.overall_accesses::total     52076507                       # number of overall (read+write) accesses
system.cpu.dcache.demand_miss_rate::.cpu.data     0.009923                       # miss rate for demand accesses
system.cpu.dcache.demand_miss_rate::total     0.009923                       # miss rate for demand accesses
system.cpu.dcache.overall_miss_rate::.cpu.data     0.010074                       # miss rate for overall accesses
system.cpu.dcache.overall_miss_rate::total     0.010074                       # miss rate for overall accesses
system.cpu.dcache.demand_avg_miss_latency::.cpu.data 38627.527638                       # average overall miss latency
system.cpu.dcache.demand_avg_miss_latency::total 38627.527638                       # average overall miss latency
system.cpu.dcache.overall_avg_miss_latency::.cpu.data 38045.166099                       # average overall miss latency
system.cpu.dcache.overall_avg_miss_latency::total 38045.166099                       # average overall miss latency
system.cpu.dcache.blocked_cycles::no_mshrs       200124                       # number of cycles access was blocked
system.cpu.dcache.blocked_cycles::no_targets            0                       # number of cycles access was blocked
system.cpu.dcache.blocked::no_mshrs              3209                       # number of cycles access was blocked
system.cpu.dcache.blocked::no_targets               0                       # number of cycles access was blocked
system.cpu.dcache.avg_blocked_cycles::no_mshrs    62.363353                       # average number of cycles each access was blocked
system.cpu.dcache.avg_blocked_cycles::no_targets          nan                       # average number of cycles each access was blocked
system.cpu.dcache.writebacks::.writebacks       405889                       # number of writebacks
system.cpu.dcache.writebacks::total            405889                       # number of writebacks
system.cpu.dcache.demand_mshr_hits::.cpu.data        62432                       # number of demand (read+write) MSHR hits
system.cpu.dcache.demand_mshr_hits::total        62432                       # number of demand (read+write) MSHR hits
system.cpu.dcache.overall_mshr_hits::.cpu.data        62432                       # number of overall MSHR hits
system.cpu.dcache.overall_mshr_hits::total        62432                       # number of overall MSHR hits
system.cpu.dcache.demand_mshr_misses::.cpu.data       454256                       # number of demand (read+write) MSHR misses
system.cpu.dcache.demand_mshr_misses::total       454256                       # number of demand (read+write) MSHR misses
system.cpu.dcache.overall_mshr_misses::.cpu.data       462161                       # number of overall MSHR misses
system.cpu.dcache.overall_mshr_misses::total       462161                       # number of overall MSHR misses
system.cpu.dcache.demand_mshr_miss_latency::.cpu.data  17861593000                       # number of demand (read+write) MSHR miss cycles
system.cpu.dcache.demand_mshr_miss_latency::total  17861593000                       # number of demand (read+write) MSHR miss cycles
system.cpu.dcache.overall_mshr_miss_latency::.cpu.data  18536138999                       # number of overall MSHR miss cycles
system.cpu.dcache.overall_mshr_miss_latency::total  18536138999                       # number of overall MSHR miss cycles
system.cpu.dcache.demand_mshr_miss_rate::.cpu.data     0.008724                       # mshr miss rate for demand accesses
system.cpu.dcache.demand_mshr_miss_rate::total     0.008724                       # mshr miss rate for demand accesses
system.cpu.dcache.overall_mshr_miss_rate::.cpu.data     0.008875                       # mshr miss rate for overall accesses
system.cpu.dcache.overall_mshr_miss_rate::total     0.008875                       # mshr miss rate for overall accesses
system.cpu.dcache.demand_avg_mshr_miss_latency::.cpu.data 39320.543922                       # average overall mshr miss latency
system.cpu.dcache.demand_avg_mshr_miss_latency::total 39320.543922                       # average overall mshr miss latency
system.cpu.dcache.overall_avg_mshr_miss_latency::.cpu.data 40107.536116                       # average overall mshr miss latency
system.cpu.dcache.overall_avg_mshr_miss_latency::total 40107.536116                       # average overall mshr miss latency
system.cpu.dcache.replacements                 460113                       # number of replacements
system.cpu.dcache.ReadReq_hits::.cpu.data     40888404                       # number of ReadReq hits
system.cpu.dcache.ReadReq_hits::total        40888404                       # number of ReadReq hits
system.cpu.dcache.ReadReq_misses::.cpu.data       230602                       # number of ReadReq misses
system.cpu.dcache.ReadReq_misses::total        230602                       # number of ReadReq misses
system.cpu.dcache.ReadReq_miss_latency::.cpu.data   5883484500                       # number of ReadReq miss cycles
system.cpu.dcache.ReadReq_miss_latency::total   5883484500                       # number of ReadReq miss cycles
system.cpu.dcache.ReadReq_accesses::.cpu.data     41119006                       # number of ReadReq accesses(hits+misses)
system.cpu.dcache.ReadReq_accesses::total     41119006                       # number of ReadReq accesses(hits+misses)
system.cpu.dcache.ReadReq_miss_rate::.cpu.data     0.005608                       # miss rate for ReadReq accesses
system.cpu.dcache.ReadReq_miss_rate::total     0.005608                       # miss rate for ReadReq accesses
system.cpu.dcache.ReadReq_avg_miss_latency::.cpu.data 25513.588347                       # average ReadReq miss latency
system.cpu.dcache.ReadReq_avg_miss_latency::total 25513.588347                       # average ReadReq miss latency
system.cpu.dcache.ReadReq_mshr_hits::.cpu.data          671                       # number of ReadReq MSHR hits
system.cpu.dcache.ReadReq_mshr_hits::total          671                       # number of ReadReq MSHR hits
system.cpu.dcache.ReadReq_mshr_misses::.cpu.data       229931                       # number of ReadReq MSHR misses
system.cpu.dcache.ReadReq_mshr_misses::total       229931                       # number of ReadReq MSHR misses
system.cpu.dcache.ReadReq_mshr_miss_latency::.cpu.data   5625191000                       # number of ReadReq MSHR miss cycles
system.cpu.dcache.ReadReq_mshr_miss_latency::total   5625191000                       # number of ReadReq MSHR miss cycles
system.cpu.dcache.ReadReq_mshr_miss_rate::.cpu.data     0.005592                       # mshr miss rate for ReadReq accesses
system.cpu.dcache.ReadReq_mshr_miss_rate::total     0.005592                       # mshr miss rate for ReadReq accesses
system.cpu.dcache.ReadReq_avg_mshr_miss_latency::.cpu.data 24464.691581                       # average ReadReq mshr miss latency
system.cpu.dcache.ReadReq_avg_mshr_miss_latency::total 24464.691581                       # average ReadReq mshr miss latency
system.cpu.dcache.WriteReq_hits::.cpu.data     10662996                       # number of WriteReq hits
system.cpu.dcache.WriteReq_hits::total       10662996                       # number of WriteReq hits
system.cpu.dcache.WriteReq_misses::.cpu.data       286086                       # number of WriteReq misses
system.cpu.dcache.WriteReq_misses::total       286086                       # number of WriteReq misses
system.cpu.dcache.WriteReq_miss_latency::.cpu.data  14074895500                       # number of WriteReq miss cycles
system.cpu.dcache.WriteReq_miss_latency::total  14074895500                       # number of WriteReq miss cycles
system.cpu.dcache.WriteReq_accesses::.cpu.data     10949082                       # number of WriteReq accesses(hits+misses)
system.cpu.dcache.WriteReq_accesses::total     10949082                       # number of WriteReq accesses(hits+misses)
system.cpu.dcache.WriteReq_miss_rate::.cpu.data     0.026129                       # miss rate for WriteReq accesses
system.cpu.dcache.WriteReq_miss_rate::total     0.026129                       # miss rate for WriteReq accesses
system.cpu.dcache.WriteReq_avg_miss_latency::.cpu.data 49198.127486                       # average WriteReq miss latency
system.cpu.dcache.WriteReq_avg_miss_latency::total 49198.127486                       # average WriteReq miss latency
system.cpu.dcache.WriteReq_mshr_hits::.cpu.data        61761                       # number of WriteReq MSHR hits
system.cpu.dcache.WriteReq_mshr_hits::total        61761                       # number of WriteReq MSHR hits
system.cpu.dcache.WriteReq_mshr_misses::.cpu.data       224325                       # number of WriteReq MSHR misses
system.cpu.dcache.WriteReq_mshr_misses::total       224325                       # number of WriteReq MSHR misses
system.cpu.dcache.WriteReq_mshr_miss_latency::.cpu.data  12236402000                       # number of WriteReq MSHR miss cycles
system.cpu.dcache.WriteReq_mshr_miss_latency::total  12236402000                       # number of WriteReq MSHR miss cycles
system.cpu.dcache.WriteReq_mshr_miss_rate::.cpu.data     0.020488                       # mshr miss rate for WriteReq accesses
system.cpu.dcache.WriteReq_mshr_miss_rate::total     0.020488                       # mshr miss rate for WriteReq accesses
system.cpu.dcache.WriteReq_avg_mshr_miss_latency::.cpu.data 54547.651844                       # average WriteReq mshr miss latency
system.cpu.dcache.WriteReq_avg_mshr_miss_latency::total 54547.651844                       # average WriteReq mshr miss latency
system.cpu.dcache.SoftPFReq_hits::.cpu.data          510                       # number of SoftPFReq hits
system.cpu.dcache.SoftPFReq_hits::total           510                       # number of SoftPFReq hits
system.cpu.dcache.SoftPFReq_misses::.cpu.data         7909                       # number of SoftPFReq misses
system.cpu.dcache.SoftPFReq_misses::total         7909                       # number of SoftPFReq misses
system.cpu.dcache.SoftPFReq_accesses::.cpu.data         8419                       # number of SoftPFReq accesses(hits+misses)
system.cpu.dcache.SoftPFReq_accesses::total         8419                       # number of SoftPFReq accesses(hits+misses)
system.cpu.dcache.SoftPFReq_miss_rate::.cpu.data     0.939423                       # miss rate for SoftPFReq accesses
system.cpu.dcache.SoftPFReq_miss_rate::total     0.939423                       # miss rate for SoftPFReq accesses
system.cpu.dcache.SoftPFReq_mshr_misses::.cpu.data         7905                       # number of SoftPFReq MSHR misses
system.cpu.dcache.SoftPFReq_mshr_misses::total         7905                       # number of SoftPFReq MSHR misses
system.cpu.dcache.SoftPFReq_mshr_miss_latency::.cpu.data    674545999                       # number of SoftPFReq MSHR miss cycles
system.cpu.dcache.SoftPFReq_mshr_miss_latency::total    674545999                       # number of SoftPFReq MSHR miss cycles
system.cpu.dcache.SoftPFReq_mshr_miss_rate::.cpu.data     0.938948                       # mshr miss rate for SoftPFReq accesses
system.cpu.dcache.SoftPFReq_mshr_miss_rate::total     0.938948                       # mshr miss rate for SoftPFReq accesses
system.cpu.dcache.SoftPFReq_avg_mshr_miss_latency::.cpu.data 85331.562176                       # average SoftPFReq mshr miss latency
system.cpu.dcache.SoftPFReq_avg_mshr_miss_latency::total 85331.562176                       # average SoftPFReq mshr miss latency
system.cpu.dcache.LoadLockedReq_hits::.cpu.data           38                       # number of LoadLockedReq hits
system.cpu.dcache.LoadLockedReq_hits::total           38                       # number of LoadLockedReq hits
system.cpu.dcache.LoadLockedReq_accesses::.cpu.data           38                       # number of LoadLockedReq accesses(hits+misses)
system.cpu.dcache.LoadLockedReq_accesses::total           38                       # number of LoadLockedReq accesses(hits+misses)
system.cpu.dcache.StoreCondReq_hits::.cpu.data           38                       # number of StoreCondReq hits
system.cpu.dcache.StoreCondReq_hits::total           38                       # number of StoreCondReq hits
system.cpu.dcache.StoreCondReq_accesses::.cpu.data           38                       # number of StoreCondReq accesses(hits+misses)
system.cpu.dcache.StoreCondReq_accesses::total           38                       # number of StoreCondReq accesses(hits+misses)
system.cpu.dcache.power_state.pwrStateResidencyTicks::UNDEFINED  80375723500                       # Cumulative time (in ticks) in various power states
system.cpu.dcache.tags.tagsinuse          2010.956635                       # Cycle average of tags in use
system.cpu.dcache.tags.total_refs            52014147                       # Total number of references to valid blocks.
system.cpu.dcache.tags.sampled_refs            462161                       # Sample count of references to valid blocks.
system.cpu.dcache.tags.avg_refs            112.545513                       # Average number of references to valid blocks.
system.cpu.dcache.tags.warmup_cycle            176500                       # Cycle when the warmup percentage was hit.
system.cpu.dcache.tags.occ_blocks::.cpu.data  2010.956635                       # Average occupied blocks per requestor
system.cpu.dcache.tags.occ_percent::.cpu.data     0.981912                       # Average percentage of cache occupancy
system.cpu.dcache.tags.occ_percent::total     0.981912                       # Average percentage of cache occupancy
system.cpu.dcache.tags.occ_task_id_blocks::1024         2048                       # Occupied blocks per task id
system.cpu.dcache.tags.age_task_id_blocks_1024::0          148                       # Occupied blocks per task id
system.cpu.dcache.tags.age_task_id_blocks_1024::1          716                       # Occupied blocks per task id
system.cpu.dcache.tags.age_task_id_blocks_1024::2         1160                       # Occupied blocks per task id
system.cpu.dcache.tags.age_task_id_blocks_1024::3           22                       # Occupied blocks per task id
system.cpu.dcache.tags.age_task_id_blocks_1024::4            2                       # Occupied blocks per task id
system.cpu.dcache.tags.occ_task_id_percent::1024            1                       # Percentage of cache occupancy per task id
system.cpu.dcache.tags.tag_accesses        1666912817                       # Number of tag accesses
system.cpu.dcache.tags.data_accesses       1666912817                       # Number of data accesses
system.cpu.dcache.tags.power_state.pwrStateResidencyTicks::UNDEFINED  80375723500                       # Cumulative time (in ticks) in various power states
system.cpu.dtb.instHits                             0                       # ITB inst hits
system.cpu.dtb.instMisses                           0                       # ITB inst misses
system.cpu.dtb.readHits                             0                       # DTB read hits
system.cpu.dtb.readMisses                           0                       # DTB read misses
system.cpu.dtb.writeHits                            0                       # DTB write hits
system.cpu.dtb.writeMisses                          0                       # DTB write misses
system.cpu.dtb.inserts                              0                       # Number of times an entry is inserted into the TLB
system.cpu.dtb.flushTlb                             0                       # Number of times complete TLB was flushed
system.cpu.dtb.flushTlbMva                          0                       # Number of times TLB was flushed by MVA
system.cpu.dtb.flushTlbMvaAsid                      0                       # Number of times TLB was flushed by MVA & ASID
system.cpu.dtb.flushTlbAsid                         0                       # Number of times TLB was flushed by ASID
system.cpu.dtb.flushedEntries                       0                       # Number of entries that have been flushed from TLB
system.cpu.dtb.alignFaults                          0                       # Number of TLB faults due to alignment restrictions
system.cpu.dtb.prefetchFaults                       0                       # Number of TLB faults due to prefetch
system.cpu.dtb.domainFaults                         0                       # Number of TLB faults due to domain restrictions
system.cpu.dtb.permsFaults                          0                       # Number of TLB faults due to permissions restrictions
system.cpu.dtb.readAccesses                         0                       # DTB read accesses
system.cpu.dtb.writeAccesses                        0                       # DTB write accesses
system.cpu.dtb.instAccesses                         0                       # ITB inst accesses
system.cpu.dtb.hits                                 0                       # Total TLB (inst and data) hits
system.cpu.dtb.misses                               0                       # Total TLB (inst and data) misses
system.cpu.dtb.accesses                             0                       # Total TLB (inst and data) accesses
system.cpu.dtb.stage2_mmu.stage2_tlb.instHits            0                       # ITB inst hits
system.cpu.dtb.stage2_mmu.stage2_tlb.instMisses            0                       # ITB inst misses
system.cpu.dtb.stage2_mmu.stage2_tlb.readHits            0                       # DTB read hits
system.cpu.dtb.stage2_mmu.stage2_tlb.readMisses            0                       # DTB read misses
system.cpu.dtb.stage2_mmu.stage2_tlb.writeHits            0                       # DTB write hits
system.cpu.dtb.stage2_mmu.stage2_tlb.writeMisses            0                       # DTB write misses
system.cpu.dtb.stage2_mmu.stage2_tlb.inserts            0                       # Number of times an entry is inserted into the TLB
system.cpu.dtb.stage2_mmu.stage2_tlb.flushTlb            0                       # Number of times complete TLB was flushed
system.cpu.dtb.stage2_mmu.stage2_tlb.flushTlbMva            0                       # Number of times TLB was flushed by MVA
system.cpu.dtb.stage2_mmu.stage2_tlb.flushTlbMvaAsid            0                       # Number of times TLB was flushed by MVA & ASID
system.cpu.dtb.stage2_mmu.stage2_tlb.flushTlbAsid            0                       # Number of times TLB was flushed by ASID
system.cpu.dtb.stage2_mmu.stage2_tlb.flushedEntries            0                       # Number of entries that have been flushed from TLB
system.cpu.dtb.stage2_mmu.stage2_tlb.alignFaults            0                       # Number of TLB faults due to alignment restrictions
system.cpu.dtb.stage2_mmu.stage2_tlb.prefetchFaults            0                       # Number of TLB faults due to prefetch
system.cpu.dtb.stage2_mmu.stage2_tlb.domainFaults            0                       # Number of TLB faults due to domain restrictions
system.cpu.dtb.stage2_mmu.stage2_tlb.permsFaults            0                       # Number of TLB faults due to permissions restrictions
system.cpu.dtb.stage2_mmu.stage2_tlb.readAccesses            0                       # DTB read accesses
system.cpu.dtb.stage2_mmu.stage2_tlb.writeAccesses            0                       # DTB write accesses
system.cpu.dtb.stage2_mmu.stage2_tlb.instAccesses            0                       # ITB inst accesses
system.cpu.dtb.stage2_mmu.stage2_tlb.hits            0                       # Total TLB (inst and data) hits
system.cpu.dtb.stage2_mmu.stage2_tlb.misses            0                       # Total TLB (inst and data) misses
system.cpu.dtb.stage2_mmu.stage2_tlb.accesses            0                       # Total TLB (inst and data) accesses
system.cpu.dtb.stage2_mmu.stage2_tlb.walker.walks            0                       # Table walker walks requested
system.cpu.dtb.stage2_mmu.stage2_tlb.walker.requestOrigin_Requested::Data            0                       # Table walker requests started/completed, data/inst
system.cpu.dtb.stage2_mmu.stage2_tlb.walker.requestOrigin_Requested::Inst            0                       # Table walker requests started/completed, data/inst
system.cpu.dtb.stage2_mmu.stage2_tlb.walker.requestOrigin_Requested::total            0                       # Table walker requests started/completed, data/inst
system.cpu.dtb.stage2_mmu.stage2_tlb.walker.requestOrigin_Completed::Data            0                       # Table walker requests started/completed, data/inst
system.cpu.dtb.stage2_mmu.stage2_tlb.walker.requestOrigin_Completed::Inst            0                       # Table walker requests started/completed, data/inst
system.cpu.dtb.stage2_mmu.stage2_tlb.walker.requestOrigin_Completed::total            0                       # Table walker requests started/completed, data/inst
system.cpu.dtb.stage2_mmu.stage2_tlb.walker.requestOrigin::total            0                       # Table walker requests started/completed, data/inst
system.cpu.dtb.stage2_mmu.stage2_tlb.walker.power_state.pwrStateResidencyTicks::UNDEFINED  80375723500                       # Cumulative time (in ticks) in various power states
system.cpu.dtb.walker.walks                         0                       # Table walker walks requested
system.cpu.dtb.walker.requestOrigin_Requested::Data            0                       # Table walker requests started/completed, data/inst
system.cpu.dtb.walker.requestOrigin_Requested::Inst            0                       # Table walker requests started/completed, data/inst
system.cpu.dtb.walker.requestOrigin_Requested::total            0                       # Table walker requests started/completed, data/inst
system.cpu.dtb.walker.requestOrigin_Completed::Data            0                       # Table walker requests started/completed, data/inst
system.cpu.dtb.walker.requestOrigin_Completed::Inst            0                       # Table walker requests started/completed, data/inst
system.cpu.dtb.walker.requestOrigin_Completed::total            0                       # Table walker requests started/completed, data/inst
system.cpu.dtb.walker.requestOrigin::total            0                       # Table walker requests started/completed, data/inst
system.cpu.dtb.walker.power_state.pwrStateResidencyTicks::UNDEFINED  80375723500                       # Cumulative time (in ticks) in various power states
system.cpu.fetch2.intInstructions            42684826                       # Number of integer instructions successfully decoded
system.cpu.fetch2.fpInstructions                    0                       # Number of floating point instructions successfully decoded
system.cpu.fetch2.vecInstructions                   0                       # Number of SIMD instructions successfully decoded
system.cpu.fetch2.loadInstructions           43474194                       # Number of memory load instructions successfully decoded
system.cpu.fetch2.storeInstructions          11024442                       # Number of memory store instructions successfully decoded
system.cpu.fetch2.amoInstructions                   0                       # Number of memory atomic instructions successfully decoded
system.cpu.icache.demand_hits::.cpu.inst     10272552                       # number of demand (read+write) hits
system.cpu.icache.demand_hits::total         10272552                       # number of demand (read+write) hits
system.cpu.icache.overall_hits::.cpu.inst     10272552                       # number of overall hits
system.cpu.icache.overall_hits::total        10272552                       # number of overall hits
system.cpu.icache.demand_misses::.cpu.inst         4181                       # number of demand (read+write) misses
system.cpu.icache.demand_misses::total           4181                       # number of demand (read+write) misses
system.cpu.icache.overall_misses::.cpu.inst         4181                       # number of overall misses
system.cpu.icache.overall_misses::total          4181                       # number of overall misses
system.cpu.icache.demand_miss_latency::.cpu.inst    104164000                       # number of demand (read+write) miss cycles
system.cpu.icache.demand_miss_latency::total    104164000                       # number of demand (read+write) miss cycles
system.cpu.icache.overall_miss_latency::.cpu.inst    104164000                       # number of overall miss cycles
system.cpu.icache.overall_miss_latency::total    104164000                       # number of overall miss cycles
system.cpu.icache.demand_accesses::.cpu.inst     10276733                       # number of demand (read+write) accesses
system.cpu.icache.demand_accesses::total     10276733                       # number of demand (read+write) accesses
system.cpu.icache.overall_accesses::.cpu.inst     10276733                       # number of overall (read+write) accesses
system.cpu.icache.overall_accesses::total     10276733                       # number of overall (read+write) accesses
system.cpu.icache.demand_miss_rate::.cpu.inst     0.000407                       # miss rate for demand accesses
system.cpu.icache.demand_miss_rate::total     0.000407                       # miss rate for demand accesses
system.cpu.icache.overall_miss_rate::.cpu.inst     0.000407                       # miss rate for overall accesses
system.cpu.icache.overall_miss_rate::total     0.000407                       # miss rate for overall accesses
system.cpu.icache.demand_avg_miss_latency::.cpu.inst 24913.657020                       # average overall miss latency
system.cpu.icache.demand_avg_miss_latency::total 24913.657020                       # average overall miss latency
system.cpu.icache.overall_avg_miss_latency::.cpu.inst 24913.657020                       # average overall miss latency
system.cpu.icache.overall_avg_miss_latency::total 24913.657020                       # average overall miss latency
system.cpu.icache.blocked_cycles::no_mshrs            0                       # number of cycles access was blocked
system.cpu.icache.blocked_cycles::no_targets            0                       # number of cycles access was blocked
system.cpu.icache.blocked::no_mshrs                 0                       # number of cycles access was blocked
system.cpu.icache.blocked::no_targets               0                       # number of cycles access was blocked
system.cpu.icache.avg_blocked_cycles::no_mshrs          nan                       # average number of cycles each access was blocked
system.cpu.icache.avg_blocked_cycles::no_targets          nan                       # average number of cycles each access was blocked
system.cpu.icache.writebacks::.writebacks         4053                       # number of writebacks
system.cpu.icache.writebacks::total              4053                       # number of writebacks
system.cpu.icache.demand_mshr_misses::.cpu.inst         4181                       # number of demand (read+write) MSHR misses
system.cpu.icache.demand_mshr_misses::total         4181                       # number of demand (read+write) MSHR misses
system.cpu.icache.overall_mshr_misses::.cpu.inst         4181                       # number of overall MSHR misses
system.cpu.icache.overall_mshr_misses::total         4181                       # number of overall MSHR misses
system.cpu.icache.demand_mshr_miss_latency::.cpu.inst     99983000                       # number of demand (read+write) MSHR miss cycles
system.cpu.icache.demand_mshr_miss_latency::total     99983000                       # number of demand (read+write) MSHR miss cycles
system.cpu.icache.overall_mshr_miss_latency::.cpu.inst     99983000                       # number of overall MSHR miss cycles
system.cpu.icache.overall_mshr_miss_latency::total     99983000                       # number of overall MSHR miss cycles
system.cpu.icache.demand_mshr_miss_rate::.cpu.inst     0.000407                       # mshr miss rate for demand accesses
system.cpu.icache.demand_mshr_miss_rate::total     0.000407                       # mshr miss rate for demand accesses
system.cpu.icache.overall_mshr_miss_rate::.cpu.inst     0.000407                       # mshr miss rate for overall accesses
system.cpu.icache.overall_mshr_miss_rate::total     0.000407                       # mshr miss rate for overall accesses
system.cpu.icache.demand_avg_mshr_miss_latency::.cpu.inst 23913.657020                       # average overall mshr miss latency
system.cpu.icache.demand_avg_mshr_miss_latency::total 23913.657020                       # average overall mshr miss latency
system.cpu.icache.overall_avg_mshr_miss_latency::.cpu.inst 23913.657020                       # average overall mshr miss latency
system.cpu.icache.overall_avg_mshr_miss_latency::total 23913.657020                       # average overall mshr miss latency
system.cpu.icache.replacements                   4053                       # number of replacements
system.cpu.icache.ReadReq_hits::.cpu.inst     10272552                       # number of ReadReq hits
system.cpu.icache.ReadReq_hits::total        10272552                       # number of ReadReq hits
system.cpu.icache.ReadReq_misses::.cpu.inst         4181                       # number of ReadReq misses
system.cpu.icache.ReadReq_misses::total          4181                       # number of ReadReq misses
system.cpu.icache.ReadReq_miss_latency::.cpu.inst    104164000                       # number of ReadReq miss cycles
system.cpu.icache.ReadReq_miss_latency::total    104164000                       # number of ReadReq miss cycles
system.cpu.icache.ReadReq_accesses::.cpu.inst     10276733                       # number of ReadReq accesses(hits+misses)
system.cpu.icache.ReadReq_accesses::total     10276733                       # number of ReadReq accesses(hits+misses)
system.cpu.icache.ReadReq_miss_rate::.cpu.inst     0.000407                       # miss rate for ReadReq accesses
system.cpu.icache.ReadReq_miss_rate::total     0.000407                       # miss rate for ReadReq accesses
system.cpu.icache.ReadReq_avg_miss_latency::.cpu.inst 24913.657020                       # average ReadReq miss latency
system.cpu.icache.ReadReq_avg_miss_latency::total 24913.657020                       # average ReadReq miss latency
system.cpu.icache.ReadReq_mshr_misses::.cpu.inst         4181                       # number of ReadReq MSHR misses
system.cpu.icache.ReadReq_mshr_misses::total         4181                       # number of ReadReq MSHR misses
system.cpu.icache.ReadReq_mshr_miss_latency::.cpu.inst     99983000                       # number of ReadReq MSHR miss cycles
system.cpu.icache.ReadReq_mshr_miss_latency::total     99983000                       # number of ReadReq MSHR miss cycles
system.cpu.icache.ReadReq_mshr_miss_rate::.cpu.inst     0.000407                       # mshr miss rate for ReadReq accesses
system.cpu.icache.ReadReq_mshr_miss_rate::total     0.000407                       # mshr miss rate for ReadReq accesses
system.cpu.icache.ReadReq_avg_mshr_miss_latency::.cpu.inst 23913.657020                       # average ReadReq mshr miss latency
system.cpu.icache.ReadReq_avg_mshr_miss_latency::total 23913.657020                       # average ReadReq mshr miss latency
system.cpu.icache.power_state.pwrStateResidencyTicks::UNDEFINED  80375723500                       # Cumulative time (in ticks) in various power states
system.cpu.icache.tags.tagsinuse           127.736972                       # Cycle average of tags in use
system.cpu.icache.tags.total_refs            10276733                       # Total number of references to valid blocks.
system.cpu.icache.tags.sampled_refs              4181                       # Sample count of references to valid blocks.
system.cpu.icache.tags.avg_refs           2457.960536                       # Average number of references to valid blocks.
system.cpu.icache.tags.warmup_cycle             87500                       # Cycle when the warmup percentage was hit.
system.cpu.icache.tags.occ_blocks::.cpu.inst   127.736972                       # Average occupied blocks per requestor
system.cpu.icache.tags.occ_percent::.cpu.inst     0.997945                       # Average percentage of cache occupancy
system.cpu.icache.tags.occ_percent::total     0.997945                       # Average percentage of cache occupancy
system.cpu.icache.tags.occ_task_id_blocks::1024          128                       # Occupied blocks per task id
system.cpu.icache.tags.age_task_id_blocks_1024::1            5                       # Occupied blocks per task id
system.cpu.icache.tags.age_task_id_blocks_1024::3           98                       # Occupied blocks per task id
system.cpu.icache.tags.age_task_id_blocks_1024::4           25                       # Occupied blocks per task id
system.cpu.icache.tags.occ_task_id_percent::1024            1                       # Percentage of cache occupancy per task id
system.cpu.icache.tags.tag_accesses          10280914                       # Number of tag accesses
system.cpu.icache.tags.data_accesses         10280914                       # Number of data accesses
system.cpu.icache.tags.power_state.pwrStateResidencyTicks::UNDEFINED  80375723500                       # Cumulative time (in ticks) in various power states
system.cpu.itb.instHits                             0                       # ITB inst hits
system.cpu.itb.instMisses                           0                       # ITB inst misses
system.cpu.itb.readHits                             0                       # DTB read hits
system.cpu.itb.readMisses                           0                       # DTB read misses
system.cpu.itb.writeHits                            0                       # DTB write hits
system.cpu.itb.writeMisses                          0                       # DTB write misses
system.cpu.itb.inserts                              0                       # Number of times an entry is inserted into the TLB
system.cpu.itb.flushTlb                             0                       # Number of times complete TLB was flushed
system.cpu.itb.flushTlbMva                          0                       # Number of times TLB was flushed by MVA
system.cpu.itb.flushTlbMvaAsid                      0                       # Number of times TLB was flushed by MVA & ASID
system.cpu.itb.flushTlbAsid                         0                       # Number of times TLB was flushed by ASID
system.cpu.itb.flushedEntries                       0                       # Number of entries that have been flushed from TLB
system.cpu.itb.alignFaults                          0                       # Number of TLB faults due to alignment restrictions
system.cpu.itb.prefetchFaults                       0                       # Number of TLB faults due to prefetch
system.cpu.itb.domainFaults                         0                       # Number of TLB faults due to domain restrictions
system.cpu.itb.permsFaults                          0                       # Number of TLB faults due to permissions restrictions
system.cpu.itb.readAccesses                         0                       # DTB read accesses
system.cpu.itb.writeAccesses                        0                       # DTB write accesses
system.cpu.itb.instAccesses                         0                       # ITB inst accesses
system.cpu.itb.hits                                 0                       # Total TLB (inst and data) hits
system.cpu.itb.misses                               0                       # Total TLB (inst and data) misses
system.cpu.itb.accesses                             0                       # Total TLB (inst and data) accesses
system.cpu.itb.stage2_mmu.stage2_tlb.instHits            0                       # ITB inst hits
system.cpu.itb.stage2_mmu.stage2_tlb.instMisses            0                       # ITB inst misses
system.cpu.itb.stage2_mmu.stage2_tlb.readHits            0                       # DTB read hits
system.cpu.itb.stage2_mmu.stage2_tlb.readMisses            0                       # DTB read misses
system.cpu.itb.stage2_mmu.stage2_tlb.writeHits            0                       # DTB write hits
system.cpu.itb.stage2_mmu.stage2_tlb.writeMisses            0                       # DTB write misses
system.cpu.itb.stage2_mmu.stage2_tlb.inserts            0                       # Number of times an entry is inserted into the TLB
system.cpu.itb.stage2_mmu.stage2_tlb.flushTlb            0                       # Number of times complete TLB was flushed
system.cpu.itb.stage2_mmu.stage2_tlb.flushTlbMva            0                       # Number of times TLB was flushed by MVA
system.cpu.itb.stage2_mmu.stage2_tlb.flushTlbMvaAsid            0                       # Number of times TLB was flushed by MVA & ASID
system.cpu.itb.stage2_mmu.stage2_tlb.flushTlbAsid            0                       # Number of times TLB was flushed by ASID
system.cpu.itb.stage2_mmu.stage2_tlb.flushedEntries            0                       # Number of entries that have been flushed from TLB
system.cpu.itb.stage2_mmu.stage2_tlb.alignFaults            0                       # Number of TLB faults due to alignment restrictions
system.cpu.itb.stage2_mmu.stage2_tlb.prefetchFaults            0                       # Number of TLB faults due to prefetch
system.cpu.itb.stage2_mmu.stage2_tlb.domainFaults            0                       # Number of TLB faults due to domain restrictions
system.cpu.itb.stage2_mmu.stage2_tlb.permsFaults            0                       # Number of TLB faults due to permissions restrictions
system.cpu.itb.stage2_mmu.stage2_tlb.readAccesses            0                       # DTB read accesses
system.cpu.itb.stage2_mmu.stage2_tlb.writeAccesses            0                       # DTB write accesses
system.cpu.itb.stage2_mmu.stage2_tlb.instAccesses            0                       # ITB inst accesses
system.cpu.itb.stage2_mmu.stage2_tlb.hits            0                       # Total TLB (inst and data) hits
system.cpu.itb.stage2_mmu.stage2_tlb.misses            0                       # Total TLB (inst and data) misses
system.cpu.itb.stage2_mmu.stage2_tlb.accesses            0                       # Total TLB (inst and data) accesses
system.cpu.itb.stage2_mmu.stage2_tlb.walker.walks            0                       # Table walker walks requested
system.cpu.itb.stage2_mmu.stage2_tlb.walker.requestOrigin_Requested::Data            0                       # Table walker requests started/completed, data/inst
system.cpu.itb.stage2_mmu.stage2_tlb.walker.requestOrigin_Requested::Inst            0                       # Table walker requests started/completed, data/inst
system.cpu.itb.stage2_mmu.stage2_tlb.walker.requestOrigin_Requested::total            0                       # Table walker requests started/completed, data/inst
system.cpu.itb.stage2_mmu.stage2_tlb.walker.requestOrigin_Completed::Data            0                       # Table walker requests started/completed, data/inst
system.cpu.itb.stage2_mmu.stage2_tlb.walker.requestOrigin_Completed::Inst            0                       # Table walker requests started/completed, data/inst
system.cpu.itb.stage2_mmu.stage2_tlb.walker.requestOrigin_Completed::total            0                       # Table walker requests started/completed, data/inst
system.cpu.itb.stage2_mmu.stage2_tlb.walker.requestOrigin::total            0                       # Table walker requests started/completed, data/inst
system.cpu.itb.stage2_mmu.stage2_tlb.walker.power_state.pwrStateResidencyTicks::UNDEFINED  80375723500                       # Cumulative time (in ticks) in various power states
system.cpu.itb.walker.walks                         0                       # Table walker walks requested
system.cpu.itb.walker.requestOrigin_Requested::Data            0                       # Table walker requests started/completed, data/inst
system.cpu.itb.walker.requestOrigin_Requested::Inst            0                       # Table walker requests started/completed, data/inst
system.cpu.itb.walker.requestOrigin_Requested::total            0                       # Table walker requests started/completed, data/inst
system.cpu.itb.walker.requestOrigin_Completed::Data            0                       # Table walker requests started/completed, data/inst
system.cpu.itb.walker.requestOrigin_Completed::Inst            0                       # Table walker requests started/completed, data/inst
system.cpu.itb.walker.requestOrigin_Completed::total            0                       # Table walker requests started/completed, data/inst
system.cpu.itb.walker.requestOrigin::total            0                       # Table walker requests started/completed, data/inst
system.cpu.itb.walker.power_state.pwrStateResidencyTicks::UNDEFINED  80375723500                       # Cumulative time (in ticks) in various power states
system.cpu.power_state.pwrStateResidencyTicks::ON  80375723500                       # Cumulative time (in ticks) in various power states
system.cpu.thread0.numInsts                 100000001                       # Number of Instructions committed
system.cpu.thread0.numOps                   100196356                       # Number of Ops committed
system.cpu.thread0.numMemRefs                       0                       # Number of Memory References
system.cpu_clk_domain.clock                       500                       # Clock period in ticks
system.cpu_voltage_domain.voltage                   1                       # Voltage in Volts
system.l2.demand_hits::.cpu.inst                 3445                       # number of demand (read+write) hits
system.l2.demand_hits::.cpu.data               282868                       # number of demand (read+write) hits
system.l2.demand_hits::total                   286313                       # number of demand (read+write) hits
system.l2.overall_hits::.cpu.inst                3445                       # number of overall hits
system.l2.overall_hits::.cpu.data              282868                       # number of overall hits
system.l2.overall_hits::total                  286313                       # number of overall hits
system.l2.demand_misses::.cpu.inst                736                       # number of demand (read+write) misses
system.l2.demand_misses::.cpu.data             179293                       # number of demand (read+write) misses
system.l2.demand_misses::total                 180029                       # number of demand (read+write) misses
system.l2.overall_misses::.cpu.inst               736                       # number of overall misses
system.l2.overall_misses::.cpu.data            179293                       # number of overall misses
system.l2.overall_misses::total                180029                       # number of overall misses
system.l2.demand_miss_latency::.cpu.inst     57272500                       # number of demand (read+write) miss cycles
system.l2.demand_miss_latency::.cpu.data  14871699500                       # number of demand (read+write) miss cycles
system.l2.demand_miss_latency::total      14928972000                       # number of demand (read+write) miss cycles
system.l2.overall_miss_latency::.cpu.inst     57272500                       # number of overall miss cycles
system.l2.overall_miss_latency::.cpu.data  14871699500                       # number of overall miss cycles
system.l2.overall_miss_latency::total     14928972000                       # number of overall miss cycles
system.l2.demand_accesses::.cpu.inst             4181                       # number of demand (read+write) accesses
system.l2.demand_accesses::.cpu.data           462161                       # number of demand (read+write) accesses
system.l2.demand_accesses::total               466342                       # number of demand (read+write) accesses
system.l2.overall_accesses::.cpu.inst            4181                       # number of overall (read+write) accesses
system.l2.overall_accesses::.cpu.data          462161                       # number of overall (read+write) accesses
system.l2.overall_accesses::total              466342                       # number of overall (read+write) accesses
system.l2.demand_miss_rate::.cpu.inst        0.176034                       # miss rate for demand accesses
system.l2.demand_miss_rate::.cpu.data        0.387945                       # miss rate for demand accesses
system.l2.demand_miss_rate::total            0.386045                       # miss rate for demand accesses
system.l2.overall_miss_rate::.cpu.inst       0.176034                       # miss rate for overall accesses
system.l2.overall_miss_rate::.cpu.data       0.387945                       # miss rate for overall accesses
system.l2.overall_miss_rate::total           0.386045                       # miss rate for overall accesses
system.l2.demand_avg_miss_latency::.cpu.inst 77815.896739                       # average overall miss latency
system.l2.demand_avg_miss_latency::.cpu.data 82946.347599                       # average overall miss latency
system.l2.demand_avg_miss_latency::total 82925.373134                       # average overall miss latency
system.l2.overall_avg_miss_latency::.cpu.inst 77815.896739                       # average overall miss latency
system.l2.overall_avg_miss_latency::.cpu.data 82946.347599                       # average overall miss latency
system.l2.overall_avg_miss_latency::total 82925.373134                       # average overall miss latency
system.l2.blocked_cycles::no_mshrs                  0                       # number of cycles access was blocked
system.l2.blocked_cycles::no_targets                0                       # number of cycles access was blocked
system.l2.blocked::no_mshrs                         0                       # number of cycles access was blocked
system.l2.blocked::no_targets                       0                       # number of cycles access was blocked
system.l2.avg_blocked_cycles::no_mshrs            nan                       # average number of cycles each access was blocked
system.l2.avg_blocked_cycles::no_targets          nan                       # average number of cycles each access was blocked
system.l2.writebacks::.writebacks               68608                       # number of writebacks
system.l2.writebacks::total                     68608                       # number of writebacks
system.l2.demand_mshr_hits::.cpu.data               6                       # number of demand (read+write) MSHR hits
system.l2.demand_mshr_hits::total                   6                       # number of demand (read+write) MSHR hits
system.l2.overall_mshr_hits::.cpu.data              6                       # number of overall MSHR hits
system.l2.overall_mshr_hits::total                  6                       # number of overall MSHR hits
system.l2.demand_mshr_misses::.cpu.inst           736                       # number of demand (read+write) MSHR misses
system.l2.demand_mshr_misses::.cpu.data        179287                       # number of demand (read+write) MSHR misses
system.l2.demand_mshr_misses::total            180023                       # number of demand (read+write) MSHR misses
system.l2.overall_mshr_misses::.cpu.inst          736                       # number of overall MSHR misses
system.l2.overall_mshr_misses::.cpu.data       179287                       # number of overall MSHR misses
system.l2.overall_mshr_misses::total           180023                       # number of overall MSHR misses
system.l2.demand_mshr_miss_latency::.cpu.inst     49912500                       # number of demand (read+write) MSHR miss cycles
system.l2.demand_mshr_miss_latency::.cpu.data  13078452000                       # number of demand (read+write) MSHR miss cycles
system.l2.demand_mshr_miss_latency::total  13128364500                       # number of demand (read+write) MSHR miss cycles
system.l2.overall_mshr_miss_latency::.cpu.inst     49912500                       # number of overall MSHR miss cycles
system.l2.overall_mshr_miss_latency::.cpu.data  13078452000                       # number of overall MSHR miss cycles
system.l2.overall_mshr_miss_latency::total  13128364500                       # number of overall MSHR miss cycles
system.l2.demand_mshr_miss_rate::.cpu.inst     0.176034                       # mshr miss rate for demand accesses
system.l2.demand_mshr_miss_rate::.cpu.data     0.387932                       # mshr miss rate for demand accesses
system.l2.demand_mshr_miss_rate::total       0.386032                       # mshr miss rate for demand accesses
system.l2.overall_mshr_miss_rate::.cpu.inst     0.176034                       # mshr miss rate for overall accesses
system.l2.overall_mshr_miss_rate::.cpu.data     0.387932                       # mshr miss rate for overall accesses
system.l2.overall_mshr_miss_rate::total      0.386032                       # mshr miss rate for overall accesses
system.l2.demand_avg_mshr_miss_latency::.cpu.inst 67815.896739                       # average overall mshr miss latency
system.l2.demand_avg_mshr_miss_latency::.cpu.data 72947.017910                       # average overall mshr miss latency
system.l2.demand_avg_mshr_miss_latency::total 72926.040006                       # average overall mshr miss latency
system.l2.overall_avg_mshr_miss_latency::.cpu.inst 67815.896739                       # average overall mshr miss latency
system.l2.overall_avg_mshr_miss_latency::.cpu.data 72947.017910                       # average overall mshr miss latency
system.l2.overall_avg_mshr_miss_latency::total 72926.040006                       # average overall mshr miss latency
system.l2.replacements                         114689                       # number of replacements
system.l2.WritebackDirty_hits::.writebacks       405889                       # number of WritebackDirty hits
system.l2.WritebackDirty_hits::total           405889                       # number of WritebackDirty hits
system.l2.WritebackDirty_accesses::.writebacks       405889                       # number of WritebackDirty accesses(hits+misses)
system.l2.WritebackDirty_accesses::total       405889                       # number of WritebackDirty accesses(hits+misses)
system.l2.WritebackClean_hits::.writebacks         3810                       # number of WritebackClean hits
system.l2.WritebackClean_hits::total             3810                       # number of WritebackClean hits
system.l2.WritebackClean_accesses::.writebacks         3810                       # number of WritebackClean accesses(hits+misses)
system.l2.WritebackClean_accesses::total         3810                       # number of WritebackClean accesses(hits+misses)
system.l2.ReadExReq_hits::.cpu.data             96688                       # number of ReadExReq hits
system.l2.ReadExReq_hits::total                 96688                       # number of ReadExReq hits
system.l2.ReadExReq_misses::.cpu.data          127637                       # number of ReadExReq misses
system.l2.ReadExReq_misses::total              127637                       # number of ReadExReq misses
system.l2.ReadExReq_miss_latency::.cpu.data  10884119500                       # number of ReadExReq miss cycles
system.l2.ReadExReq_miss_latency::total   10884119500                       # number of ReadExReq miss cycles
system.l2.ReadExReq_accesses::.cpu.data        224325                       # number of ReadExReq accesses(hits+misses)
system.l2.ReadExReq_accesses::total            224325                       # number of ReadExReq accesses(hits+misses)
system.l2.ReadExReq_miss_rate::.cpu.data     0.568983                       # miss rate for ReadExReq accesses
system.l2.ReadExReq_miss_rate::total         0.568983                       # miss rate for ReadExReq accesses
system.l2.ReadExReq_avg_miss_latency::.cpu.data 85274.015372                       # average ReadExReq miss latency
system.l2.ReadExReq_avg_miss_latency::total 85274.015372                       # average ReadExReq miss latency
system.l2.ReadExReq_mshr_misses::.cpu.data       127637                       # number of ReadExReq MSHR misses
system.l2.ReadExReq_mshr_misses::total         127637                       # number of ReadExReq MSHR misses
system.l2.ReadExReq_mshr_miss_latency::.cpu.data   9607749500                       # number of ReadExReq MSHR miss cycles
system.l2.ReadExReq_mshr_miss_latency::total   9607749500                       # number of ReadExReq MSHR miss cycles
system.l2.ReadExReq_mshr_miss_rate::.cpu.data     0.568983                       # mshr miss rate for ReadExReq accesses
system.l2.ReadExReq_mshr_miss_rate::total     0.568983                       # mshr miss rate for ReadExReq accesses
system.l2.ReadExReq_avg_mshr_miss_latency::.cpu.data 75274.015372                       # average ReadExReq mshr miss latency
system.l2.ReadExReq_avg_mshr_miss_latency::total 75274.015372                       # average ReadExReq mshr miss latency
system.l2.ReadCleanReq_hits::.cpu.inst           3445                       # number of ReadCleanReq hits
system.l2.ReadCleanReq_hits::total               3445                       # number of ReadCleanReq hits
system.l2.ReadCleanReq_misses::.cpu.inst          736                       # number of ReadCleanReq misses
system.l2.ReadCleanReq_misses::total              736                       # number of ReadCleanReq misses
system.l2.ReadCleanReq_miss_latency::.cpu.inst     57272500                       # number of ReadCleanReq miss cycles
system.l2.ReadCleanReq_miss_latency::total     57272500                       # number of ReadCleanReq miss cycles
system.l2.ReadCleanReq_accesses::.cpu.inst         4181                       # number of ReadCleanReq accesses(hits+misses)
system.l2.ReadCleanReq_accesses::total           4181                       # number of ReadCleanReq accesses(hits+misses)
system.l2.ReadCleanReq_miss_rate::.cpu.inst     0.176034                       # miss rate for ReadCleanReq accesses
system.l2.ReadCleanReq_miss_rate::total      0.176034                       # miss rate for ReadCleanReq accesses
system.l2.ReadCleanReq_avg_miss_latency::.cpu.inst 77815.896739                       # average ReadCleanReq miss latency
system.l2.ReadCleanReq_avg_miss_latency::total 77815.896739                       # average ReadCleanReq miss latency
system.l2.ReadCleanReq_mshr_misses::.cpu.inst          736                       # number of ReadCleanReq MSHR misses
system.l2.ReadCleanReq_mshr_misses::total          736                       # number of ReadCleanReq MSHR misses
system.l2.ReadCleanReq_mshr_miss_latency::.cpu.inst     49912500                       # number of ReadCleanReq MSHR miss cycles
system.l2.ReadCleanReq_mshr_miss_latency::total     49912500                       # number of ReadCleanReq MSHR miss cycles
system.l2.ReadCleanReq_mshr_miss_rate::.cpu.inst     0.176034                       # mshr miss rate for ReadCleanReq accesses
system.l2.ReadCleanReq_mshr_miss_rate::total     0.176034                       # mshr miss rate for ReadCleanReq accesses
system.l2.ReadCleanReq_avg_mshr_miss_latency::.cpu.inst 67815.896739                       # average ReadCleanReq mshr miss latency
system.l2.ReadCleanReq_avg_mshr_miss_latency::total 67815.896739                       # average ReadCleanReq mshr miss latency
system.l2.ReadSharedReq_hits::.cpu.data        186180                       # number of ReadSharedReq hits
system.l2.ReadSharedReq_hits::total            186180                       # number of ReadSharedReq hits
system.l2.ReadSharedReq_misses::.cpu.data        51656                       # number of ReadSharedReq misses
system.l2.ReadSharedReq_misses::total           51656                       # number of ReadSharedReq misses
system.l2.ReadSharedReq_miss_latency::.cpu.data   3987580000                       # number of ReadSharedReq miss cycles
system.l2.ReadSharedReq_miss_latency::total   3987580000                       # number of ReadSharedReq miss cycles
system.l2.ReadSharedReq_accesses::.cpu.data       237836                       # number of ReadSharedReq accesses(hits+misses)
system.l2.ReadSharedReq_accesses::total        237836                       # number of ReadSharedReq accesses(hits+misses)
system.l2.ReadSharedReq_miss_rate::.cpu.data     0.217192                       # miss rate for ReadSharedReq accesses
system.l2.ReadSharedReq_miss_rate::total     0.217192                       # miss rate for ReadSharedReq accesses
system.l2.ReadSharedReq_avg_miss_latency::.cpu.data 77194.904755                       # average ReadSharedReq miss latency
system.l2.ReadSharedReq_avg_miss_latency::total 77194.904755                       # average ReadSharedReq miss latency
system.l2.ReadSharedReq_mshr_hits::.cpu.data            6                       # number of ReadSharedReq MSHR hits
system.l2.ReadSharedReq_mshr_hits::total            6                       # number of ReadSharedReq MSHR hits
system.l2.ReadSharedReq_mshr_misses::.cpu.data        51650                       # number of ReadSharedReq MSHR misses
system.l2.ReadSharedReq_mshr_misses::total        51650                       # number of ReadSharedReq MSHR misses
system.l2.ReadSharedReq_mshr_miss_latency::.cpu.data   3470702500                       # number of ReadSharedReq MSHR miss cycles
system.l2.ReadSharedReq_mshr_miss_latency::total   3470702500                       # number of ReadSharedReq MSHR miss cycles
system.l2.ReadSharedReq_mshr_miss_rate::.cpu.data     0.217166                       # mshr miss rate for ReadSharedReq accesses
system.l2.ReadSharedReq_mshr_miss_rate::total     0.217166                       # mshr miss rate for ReadSharedReq accesses
system.l2.ReadSharedReq_avg_mshr_miss_latency::.cpu.data 67196.563408                       # average ReadSharedReq mshr miss latency
system.l2.ReadSharedReq_avg_mshr_miss_latency::total 67196.563408                       # average ReadSharedReq mshr miss latency
system.l2.power_state.pwrStateResidencyTicks::UNDEFINED  80375723500                       # Cumulative time (in ticks) in various power states
system.l2.tags.tagsinuse                 63105.576361                       # Cycle average of tags in use
system.l2.tags.total_refs                      930221                       # Total number of references to valid blocks.
system.l2.tags.sampled_refs                    180225                       # Sample count of references to valid blocks.
system.l2.tags.avg_refs                      5.161443                       # Average number of references to valid blocks.
system.l2.tags.warmup_cycle                     77000                       # Cycle when the warmup percentage was hit.
system.l2.tags.occ_blocks::.writebacks      92.130533                       # Average occupied blocks per requestor
system.l2.tags.occ_blocks::.cpu.inst       185.043558                       # Average occupied blocks per requestor
system.l2.tags.occ_blocks::.cpu.data     62828.402270                       # Average occupied blocks per requestor
system.l2.tags.occ_percent::.writebacks      0.001406                       # Average percentage of cache occupancy
system.l2.tags.occ_percent::.cpu.inst        0.002824                       # Average percentage of cache occupancy
system.l2.tags.occ_percent::.cpu.data        0.958685                       # Average percentage of cache occupancy
system.l2.tags.occ_percent::total            0.962915                       # Average percentage of cache occupancy
system.l2.tags.occ_task_id_blocks::1024         65536                       # Occupied blocks per task id
system.l2.tags.age_task_id_blocks_1024::3         5831                       # Occupied blocks per task id
system.l2.tags.age_task_id_blocks_1024::4        59705                       # Occupied blocks per task id
system.l2.tags.occ_task_id_percent::1024            1                       # Percentage of cache occupancy per task id
system.l2.tags.tag_accesses                  29947489                       # Number of tag accesses
system.l2.tags.data_accesses                 29947489                       # Number of data accesses
system.l2.tags.power_state.pwrStateResidencyTicks::UNDEFINED  80375723500                       # Cumulative time (in ticks) in various power states
system.mem_ctrls.avgPriority_.writebacks::samples     68608.00                       # Average QoS priority value for accepted requests
system.mem_ctrls.avgPriority_.cpu.inst::samples       736.00                       # Average QoS priority value for accepted requests
system.mem_ctrls.avgPriority_.cpu.data::samples    179287.00                       # Average QoS priority value for accepted requests
system.mem_ctrls.priorityMinLatency      0.000000018750                       # per QoS priority minimum request to response latency (s)
system.mem_ctrls.priorityMaxLatency      0.002825878500                       # per QoS priority maximum request to response latency (s)
system.mem_ctrls.numReadWriteTurnArounds         4115                       # Number of turnarounds from READ to WRITE
system.mem_ctrls.numWriteReadTurnArounds         4115                       # Number of turnarounds from WRITE to READ
system.mem_ctrls.numStayReadState              442999                       # Number of times bus staying in READ state
system.mem_ctrls.numStayWriteState              64532                       # Number of times bus staying in WRITE state
system.mem_ctrls.readReqs                      180023                       # Number of read requests accepted
system.mem_ctrls.writeReqs                      68608                       # Number of write requests accepted
system.mem_ctrls.readBursts                    180023                       # Number of controller read bursts, including those serviced by the write queue
system.mem_ctrls.writeBursts                    68608                       # Number of controller write bursts, including those merged in the write queue
system.mem_ctrls.servicedByWrQ                      0                       # Number of controller read bursts serviced by the write queue
system.mem_ctrls.mergedWrBursts                     0                       # Number of controller write bursts merged with an existing one
system.mem_ctrls.neitherReadNorWriteReqs            0                       # Number of requests that are neither read nor write
system.mem_ctrls.avgRdQLen                       1.08                       # Average read queue length when enqueuing
system.mem_ctrls.avgWrQLen                      24.64                       # Average write queue length when enqueuing
system.mem_ctrls.numRdRetry                         0                       # Number of times read queue was full causing retry
system.mem_ctrls.numWrRetry                         0                       # Number of times write queue was full causing retry
system.mem_ctrls.readPktSize::0                     0                       # Read request sizes (log2)
system.mem_ctrls.readPktSize::1                     0                       # Read request sizes (log2)
system.mem_ctrls.readPktSize::2                     0                       # Read request sizes (log2)
system.mem_ctrls.readPktSize::3                     0                       # Read request sizes (log2)
system.mem_ctrls.readPktSize::4                     0                       # Read request sizes (log2)
system.mem_ctrls.readPktSize::5                     0                       # Read request sizes (log2)
system.mem_ctrls.readPktSize::6                180023                       # Read request sizes (log2)
system.mem_ctrls.writePktSize::0                    0                       # Write request sizes (log2)
system.mem_ctrls.writePktSize::1                    0                       # Write request sizes (log2)
system.mem_ctrls.writePktSize::2                    0                       # Write request sizes (log2)
system.mem_ctrls.writePktSize::3                    0                       # Write request sizes (log2)
system.mem_ctrls.writePktSize::4                    0                       # Write request sizes (log2)
system.mem_ctrls.writePktSize::5                    0                       # Write request sizes (log2)
system.mem_ctrls.writePktSize::6                68608                       # Write request sizes (log2)
system.mem_ctrls.rdQLenPdf::0                  120566                       # What read queue length does an incoming req see
system.mem_ctrls.rdQLenPdf::1                   56841                       # What read queue length does an incoming req see
system.mem_ctrls.rdQLenPdf::2                    2325                       # What read queue length does an incoming req see
system.mem_ctrls.rdQLenPdf::3                     290                       # What read queue length does an incoming req see
system.mem_ctrls.rdQLenPdf::4                       1                       # What read queue length does an incoming req see
system.mem_ctrls.rdQLenPdf::5                       0                       # What read queue length does an incoming req see
system.mem_ctrls.rdQLenPdf::6                       0                       # What read queue length does an incoming req see
system.mem_ctrls.rdQLenPdf::7                       0                       # What read queue length does an incoming req see
system.mem_ctrls.rdQLenPdf::8                       0                       # What read queue length does an incoming req see
system.mem_ctrls.rdQLenPdf::9                       0                       # What read queue length does an incoming req see
system.mem_ctrls.rdQLenPdf::10                      0                       # What read queue length does an incoming req see
system.mem_ctrls.rdQLenPdf::11                      0                       # What read queue length does an incoming req see
[...]
system.mem_ctrls.dram.bw_write::.writebacks     54629829                       # Write bandwidth from this memory (bytes/s)
system.mem_ctrls.dram.bw_write::total        54629829                       # Write bandwidth from this memory (bytes/s)
system.mem_ctrls.dram.bw_total::.writebacks     54629829                       # Total bandwidth to/from this memory (bytes/s)
system.mem_ctrls.dram.bw_total::.cpu.inst       586048                       # Total bandwidth to/from this memory (bytes/s)
system.mem_ctrls.dram.bw_total::.cpu.data    142759126                       # Total bandwidth to/from this memory (bytes/s)
system.mem_ctrls.dram.bw_total::total       197975002                       # Total bandwidth to/from this memory (bytes/s)
system.mem_ctrls.dram.readBursts               180023                       # Number of DRAM read bursts
system.mem_ctrls.dram.writeBursts               68582                       # Number of DRAM write bursts
system.mem_ctrls.dram.perBankRdBursts::0        11349                       # Per bank write bursts
system.mem_ctrls.dram.perBankRdBursts::1        11368                       # Per bank write bursts
system.mem_ctrls.dram.perBankRdBursts::2        11365                       # Per bank write bursts
system.mem_ctrls.dram.perBankRdBursts::3        11358                       # Per bank write bursts
system.mem_ctrls.dram.perBankRdBursts::4        11383                       # Per bank write bursts
system.mem_ctrls.dram.perBankRdBursts::5        11187                       # Per bank write bursts
system.mem_ctrls.dram.perBankRdBursts::6        11205                       # Per bank write bursts
system.mem_ctrls.dram.perBankRdBursts::7        11130                       # Per bank write bursts
system.mem_ctrls.dram.perBankRdBursts::8        11219                       # Per bank write bursts
system.mem_ctrls.dram.perBankRdBursts::9        11020                       # Per bank write bursts
system.mem_ctrls.dram.perBankRdBursts::10        11282                       # Per bank write bursts
system.mem_ctrls.dram.perBankRdBursts::11        11268                       # Per bank write bursts
system.mem_ctrls.dram.perBankRdBursts::12        11281                       # Per bank write bursts
system.mem_ctrls.dram.perBankRdBursts::13        11269                       # Per bank write bursts
system.mem_ctrls.dram.perBankRdBursts::14        11190                       # Per bank write bursts
system.mem_ctrls.dram.perBankRdBursts::15        11149                       # Per bank write bursts
system.mem_ctrls.dram.perBankWrBursts::0         4265                       # Per bank write bursts
system.mem_ctrls.dram.perBankWrBursts::1         4352                       # Per bank write bursts
system.mem_ctrls.dram.perBankWrBursts::2         4360                       # Per bank write bursts
system.mem_ctrls.dram.perBankWrBursts::3         4389                       # Per bank write bursts
system.mem_ctrls.dram.perBankWrBursts::4         4381                       # Per bank write bursts
system.mem_ctrls.dram.perBankWrBursts::5         4364                       # Per bank write bursts
system.mem_ctrls.dram.perBankWrBursts::6         4356                       # Per bank write bursts
system.mem_ctrls.dram.perBankWrBursts::7         4319                       # Per bank write bursts
system.mem_ctrls.dram.perBankWrBursts::8         4275                       # Per bank write bursts
system.mem_ctrls.dram.perBankWrBursts::9         4176                       # Per bank write bursts
system.mem_ctrls.dram.perBankWrBursts::10         4225                       # Per bank write bursts
system.mem_ctrls.dram.perBankWrBursts::11         4224                       # Per bank write bursts
system.mem_ctrls.dram.perBankWrBursts::12         4224                       # Per bank write bursts
system.mem_ctrls.dram.perBankWrBursts::13         4224                       # Per bank write bursts
system.mem_ctrls.dram.perBankWrBursts::14         4224                       # Per bank write bursts
system.mem_ctrls.dram.perBankWrBursts::15         4224                       # Per bank write bursts
system.mem_ctrls.dram.totQLat              2332378000                       # Total ticks spent queuing
system.mem_ctrls.dram.totBusLat             900115000                       # Total ticks spent in databus transfers
system.mem_ctrls.dram.totMemAccLat         5707809250                       # Total ticks spent from burst creation until serviced by the DRAM
system.mem_ctrls.dram.avgQLat                12956.00                       # Average queueing delay per DRAM burst
system.mem_ctrls.dram.avgBusLat               5000.00                       # Average bus latency per DRAM burst
system.mem_ctrls.dram.avgMemAccLat           31706.00                       # Average memory access latency per DRAM burst
system.mem_ctrls.dram.readRowHits              131445                       # Number of row buffer hits during reads
system.mem_ctrls.dram.writeRowHits              50622                       # Number of row buffer hits during writes
system.mem_ctrls.dram.readRowHitRate            73.02                       # Row buffer hit rate for reads
system.mem_ctrls.dram.writeRowHitRate           73.81                       # Row buffer hit rate for writes
system.mem_ctrls.dram.bytesPerActivate::samples        66538                       # Bytes accessed per row activation
system.mem_ctrls.dram.bytesPerActivate::mean   239.122306                       # Bytes accessed per row activation
system.mem_ctrls.dram.bytesPerActivate::gmean   134.030305                       # Bytes accessed per row activation
system.mem_ctrls.dram.bytesPerActivate::stdev   288.629376                       # Bytes accessed per row activation
system.mem_ctrls.dram.bytesPerActivate::0-127        38724     58.20%     58.20% # Bytes accessed per row activation
system.mem_ctrls.dram.bytesPerActivate::128-255         8741     13.14%     71.34% # Bytes accessed per row activation
system.mem_ctrls.dram.bytesPerActivate::256-383         1761      2.65%     73.98% # Bytes accessed per row activation
system.mem_ctrls.dram.bytesPerActivate::384-511         1797      2.70%     76.68% # Bytes accessed per row activation
system.mem_ctrls.dram.bytesPerActivate::512-639         8185     12.30%     88.98% # Bytes accessed per row activation
system.mem_ctrls.dram.bytesPerActivate::640-767         1674      2.52%     91.50% # Bytes accessed per row activation
system.mem_ctrls.dram.bytesPerActivate::768-895          435      0.65%     92.15% # Bytes accessed per row activation
system.mem_ctrls.dram.bytesPerActivate::896-1023          454      0.68%     92.84% # Bytes accessed per row activation
system.mem_ctrls.dram.bytesPerActivate::1024-1151         4767      7.16%    100.00% # Bytes accessed per row activation
system.mem_ctrls.dram.bytesPerActivate::total        66538                       # Bytes accessed per row activation
system.mem_ctrls.dram.bytesRead              11521472                       # Total number of bytes read from DRAM
system.mem_ctrls.dram.bytesWritten            4389248                       # Total number of bytes written to DRAM
system.mem_ctrls.dram.avgRdBW              143.345173                       # Average DRAM read bandwidth in MiBytes/s
system.mem_ctrls.dram.avgWrBW               54.609126                       # Average DRAM write bandwidth in MiBytes/s
system.mem_ctrls.dram.peakBW                 12800.00                       # Theoretical peak bandwidth in MiByte/s
system.mem_ctrls.dram.busUtil                    1.55                       # Data bus utilization in percentage
system.mem_ctrls.dram.busUtilRead                1.12                       # Data bus utilization in percentage for reads
system.mem_ctrls.dram.busUtilWrite               0.43                       # Data bus utilization in percentage for writes
system.mem_ctrls.dram.pageHitRate               73.24                       # Row buffer hit rate, read and write combined
system.mem_ctrls.dram.power_state.pwrStateResidencyTicks::UNDEFINED  80375723500                       # Cumulative time (in ticks) in various power states
system.mem_ctrls.dram.rank0.actEnergy       242138820                       # Energy for activate commands per rank (pJ)
system.mem_ctrls.dram.rank0.preEnergy       128699835                       # Energy for precharge commands per rank (pJ)
system.mem_ctrls.dram.rank0.readEnergy      645063300                       # Energy for read commands per rank (pJ)
system.mem_ctrls.dram.rank0.writeEnergy     181582920                       # Energy for write commands per rank (pJ)
system.mem_ctrls.dram.rank0.refreshEnergy 6344314080.000001                       # Energy for refresh commands per rank (pJ)
system.mem_ctrls.dram.rank0.actBackEnergy  19011646050                       # Energy for active background per rank (pJ)
system.mem_ctrls.dram.rank0.preBackEnergy  14854470720                       # Energy for precharge background per rank (pJ)
system.mem_ctrls.dram.rank0.actPowerDownEnergy            0                       # Energy for active power-down per rank (pJ)
system.mem_ctrls.dram.rank0.prePowerDownEnergy            0                       # Energy for precharge power-down per rank (pJ)
system.mem_ctrls.dram.rank0.selfRefreshEnergy            0                       # Energy for self refresh per rank (pJ)
system.mem_ctrls.dram.rank0.totalEnergy   41407915725                       # Total energy per rank (pJ)
system.mem_ctrls.dram.rank0.averagePower   515.179384                       # Core power per rank (mW)
system.mem_ctrls.dram.rank0.totalIdleTime            0                       # Total Idle time Per DRAM Rank
system.mem_ctrls.dram.rank0.pwrStateTime::IDLE  38426173000                       # Time in different power states
system.mem_ctrls.dram.rank0.pwrStateTime::REF   2683720000                       # Time in different power states
system.mem_ctrls.dram.rank0.pwrStateTime::SREF            0                       # Time in different power states
system.mem_ctrls.dram.rank0.pwrStateTime::PRE_PDN            0                       # Time in different power states
system.mem_ctrls.dram.rank0.pwrStateTime::ACT  39265830500                       # Time in different power states
system.mem_ctrls.dram.rank0.pwrStateTime::ACT_PDN            0                       # Time in different power states
system.mem_ctrls.dram.rank1.actEnergy       232942500                       # Energy for activate commands per rank (pJ)
system.mem_ctrls.dram.rank1.preEnergy       123811875                       # Energy for precharge commands per rank (pJ)
system.mem_ctrls.dram.rank1.readEnergy      640300920                       # Energy for read commands per rank (pJ)
system.mem_ctrls.dram.rank1.writeEnergy     176415120                       # Energy for write commands per rank (pJ)
system.mem_ctrls.dram.rank1.refreshEnergy 6344314080.000001                       # Energy for refresh commands per rank (pJ)
system.mem_ctrls.dram.rank1.actBackEnergy  18544232940                       # Energy for active background per rank (pJ)
system.mem_ctrls.dram.rank1.preBackEnergy  15248081760                       # Energy for precharge background per rank (pJ)
system.mem_ctrls.dram.rank1.actPowerDownEnergy            0                       # Energy for active power-down per rank (pJ)
system.mem_ctrls.dram.rank1.prePowerDownEnergy            0                       # Energy for precharge power-down per rank (pJ)
system.mem_ctrls.dram.rank1.selfRefreshEnergy            0                       # Energy for self refresh per rank (pJ)
system.mem_ctrls.dram.rank1.totalEnergy   41310099195                       # Total energy per rank (pJ)
system.mem_ctrls.dram.rank1.averagePower   513.962393                       # Core power per rank (mW)
system.mem_ctrls.dram.rank1.totalIdleTime            0                       # Total Idle time Per DRAM Rank
system.mem_ctrls.dram.rank1.pwrStateTime::IDLE  39454810000                       # Time in different power states
system.mem_ctrls.dram.rank1.pwrStateTime::REF   2683720000                       # Time in different power states
system.mem_ctrls.dram.rank1.pwrStateTime::SREF            0                       # Time in different power states
system.mem_ctrls.dram.rank1.pwrStateTime::PRE_PDN            0                       # Time in different power states
system.mem_ctrls.dram.rank1.pwrStateTime::ACT  38237193500                       # Time in different power states
system.mem_ctrls.dram.rank1.pwrStateTime::ACT_PDN            0                       # Time in different power states
system.mem_ctrls.power_state.pwrStateResidencyTicks::UNDEFINED  80375723500                       # Cumulative time (in ticks) in various power states
system.membus.trans_dist::ReadResp              52386                       # Transaction distribution
system.membus.trans_dist::WritebackDirty        68608                       # Transaction distribution
system.membus.trans_dist::CleanEvict            45875                       # Transaction distribution
system.membus.trans_dist::ReadExReq            127637                       # Transaction distribution
system.membus.trans_dist::ReadExResp           127637                       # Transaction distribution
system.membus.trans_dist::ReadSharedReq         52386                       # Transaction distribution
system.membus.pkt_count_system.l2.mem_side_port::system.mem_ctrls.port       474529                       # Packet count per connected requestor and responder (bytes)
system.membus.pkt_count::total                 474529                       # Packet count per connected requestor and responder (bytes)
system.membus.pkt_size_system.l2.mem_side_port::system.mem_ctrls.port     15912384                       # Cumulative packet size per connected requestor and responder (bytes)
system.membus.pkt_size::total                15912384                       # Cumulative packet size per connected requestor and responder (bytes)
system.membus.snoops                                0                       # Total snoops (count)
system.membus.snoopTraffic                          0                       # Total snoop traffic (bytes)
system.membus.snoop_fanout::samples            180023                       # Request fanout histogram
system.membus.snoop_fanout::mean                    0                       # Request fanout histogram
system.membus.snoop_fanout::stdev                   0                       # Request fanout histogram
system.membus.snoop_fanout::underflows              0      0.00%      0.00% # Request fanout histogram
system.membus.snoop_fanout::0                  180023    100.00%    100.00% # Request fanout histogram
system.membus.snoop_fanout::1                       0      0.00%    100.00% # Request fanout histogram
system.membus.snoop_fanout::overflows               0      0.00%    100.00% # Request fanout histogram
system.membus.snoop_fanout::min_value               0                       # Request fanout histogram
system.membus.snoop_fanout::max_value               0                       # Request fanout histogram
system.membus.snoop_fanout::total              180023                       # Request fanout histogram
system.membus.power_state.pwrStateResidencyTicks::UNDEFINED  80375723500                       # Cumulative time (in ticks) in various power states
system.membus.reqLayer0.occupancy           601775500                       # Layer occupancy (ticks)
system.membus.reqLayer0.utilization               0.7                       # Layer utilization (%)
system.membus.respLayer1.occupancy          967844500                       # Layer occupancy (ticks)
system.membus.respLayer1.utilization              1.2                       # Layer utilization (%)
system.tol2bus.trans_dist::ReadResp            242017                       # Transaction distribution
system.tol2bus.trans_dist::WritebackDirty       474497                       # Transaction distribution
system.tol2bus.trans_dist::WritebackClean         4053                       # Transaction distribution
system.tol2bus.trans_dist::CleanEvict          100305                       # Transaction distribution
system.tol2bus.trans_dist::ReadExReq           224325                       # Transaction distribution
system.tol2bus.trans_dist::ReadExResp          224325                       # Transaction distribution
system.tol2bus.trans_dist::ReadCleanReq          4181                       # Transaction distribution
system.tol2bus.trans_dist::ReadSharedReq       237836                       # Transaction distribution
system.tol2bus.pkt_count_system.cpu.icache.mem_side_port::system.l2.cpu_side_port        12415                       # Packet count per connected requestor and responder (bytes)
system.tol2bus.pkt_count_system.cpu.dcache.mem_side_port::system.l2.cpu_side_port      1384435                       # Packet count per connected requestor and responder (bytes)
system.tol2bus.pkt_count::total               1396850                       # Packet count per connected requestor and responder (bytes)
system.tol2bus.pkt_size_system.cpu.icache.mem_side_port::system.l2.cpu_side_port       526976                       # Cumulative packet size per connected requestor and responder (bytes)
system.tol2bus.pkt_size_system.cpu.dcache.mem_side_port::system.l2.cpu_side_port     55555200                       # Cumulative packet size per connected requestor and responder (bytes)
system.tol2bus.pkt_size::total               56082176                       # Cumulative packet size per connected requestor and responder (bytes)
system.tol2bus.snoops                          114689                       # Total snoops (count)
system.tol2bus.snoopTraffic                   4390912                       # Total snoop traffic (bytes)
system.tol2bus.snoop_fanout::samples           581031                       # Request fanout histogram
system.tol2bus.snoop_fanout::mean            0.000842                       # Request fanout histogram
system.tol2bus.snoop_fanout::stdev           0.028998                       # Request fanout histogram
system.tol2bus.snoop_fanout::underflows             0      0.00%      0.00% # Request fanout histogram
system.tol2bus.snoop_fanout::0                 580542     99.92%     99.92% # Request fanout histogram
system.tol2bus.snoop_fanout::1                    489      0.08%    100.00% # Request fanout histogram
system.tol2bus.snoop_fanout::2                      0      0.00%    100.00% # Request fanout histogram
system.tol2bus.snoop_fanout::overflows              0      0.00%    100.00% # Request fanout histogram
system.tol2bus.snoop_fanout::min_value              0                       # Request fanout histogram
system.tol2bus.snoop_fanout::max_value              1                       # Request fanout histogram
system.tol2bus.snoop_fanout::total             581031                       # Request fanout histogram
system.tol2bus.power_state.pwrStateResidencyTicks::UNDEFINED  80375723500                       # Cumulative time (in ticks) in various power states
system.tol2bus.reqLayer0.occupancy          875196000                       # Layer occupancy (ticks)
system.tol2bus.reqLayer0.utilization              1.1                       # Layer utilization (%)
system.tol2bus.respLayer0.occupancy           6271500                       # Layer occupancy (ticks)
system.tol2bus.respLayer0.utilization             0.0                       # Layer utilization (%)
system.tol2bus.respLayer1.occupancy         693245991                       # Layer occupancy (ticks)
system.tol2bus.respLayer1.utilization             0.9                       # Layer utilization (%)
system.voltage_domain.voltage                       1                       # Voltage in Volts

---------- End Simulation Statistics   ----------
