
---------- Begin Simulation Statistics ----------
final_tick                               371468424000                       # Number of ticks from beginning of simulation (restored from checkpoints and never reset)
host_inst_rate                                  68041                       # Simulator instruction rate (inst/s)
host_mem_usage                                 662164                       # Number of bytes of host memory used
host_op_rate                                   125345                       # Simulator op (including micro ops) rate (op/s)
host_seconds                                  1469.69                       # Real time elapsed on the host
host_tick_rate                              252752639                       # Simulator tick rate (ticks/s)
sim_freq                                 1000000000000                       # Frequency of simulated ticks
sim_insts                                   100000001                       # Number of instructions simulated
sim_ops                                     184218784                       # Number of ops (including micro ops) simulated
sim_seconds                                  0.371468                       # Number of seconds simulated
sim_ticks                                371468424000                       # Number of ticks simulated
system.cpu.committedInsts                   100000001                       # Number of instructions committed
system.cpu.committedOps                     184218784                       # Number of ops (including micro ops) committed
system.cpu.cpi                               3.714684                       # CPI: cycles per instruction
system.cpu.discardedOps                          4413                       # Number of ops (including micro ops) which were discarded before commit
system.cpu.idleCycles                       153734649                       # Total number of cycles that the object has spent stopped
system.cpu.ipc                               0.269202                       # IPC: instructions per cycle
system.cpu.numCycles                        371468424                       # number of cpu cycles simulated
system.cpu.numFetchSuspends                         0                       # Number of times Execute suspended instruction fetching
system.cpu.numWorkItemsCompleted                    0                       # number of work items this cpu completed
system.cpu.numWorkItemsStarted                      0                       # number of work items this cpu started
system.cpu.op_class_0::No_OpClass                   0      0.00%      0.00% # Class of committed instruction
system.cpu.op_class_0::IntAlu                97640468     53.00%     53.00% # Class of committed instruction
system.cpu.op_class_0::IntMult                 114702      0.06%     53.06% # Class of committed instruction
system.cpu.op_class_0::IntDiv                       0      0.00%     53.06% # Class of committed instruction
system.cpu.op_class_0::FloatAdd                     0      0.00%     53.06% # Class of committed instruction
system.cpu.op_class_0::FloatCmp                     0      0.00%     53.06% # Class of committed instruction
system.cpu.op_class_0::FloatCvt                     0      0.00%     53.06% # Class of committed instruction
system.cpu.op_class_0::FloatMult                    0      0.00%     53.06% # Class of committed instruction
system.cpu.op_class_0::FloatMultAcc                 0      0.00%     53.06% # Class of committed instruction
system.cpu.op_class_0::FloatDiv                     0      0.00%     53.06% # Class of committed instruction
system.cpu.op_class_0::FloatMisc                    0      0.00%     53.06% # Class of committed instruction
system.cpu.op_class_0::FloatSqrt                    0      0.00%     53.06% # Class of committed instruction
system.cpu.op_class_0::SimdAdd                      8      0.00%     53.06% # Class of committed instruction
system.cpu.op_class_0::SimdAddAcc                   0      0.00%     53.06% # Class of committed instruction
system.cpu.op_class_0::SimdAlu                     10      0.00%     53.06% # Class of committed instruction
system.cpu.op_class_0::SimdCmp                      8      0.00%     53.06% # Class of committed instruction
system.cpu.op_class_0::SimdCvt                      0      0.00%     53.06% # Class of committed instruction
system.cpu.op_class_0::SimdMisc                     1      0.00%     53.06% # Class of committed instruction
system.cpu.op_class_0::SimdMult                     0      0.00%     53.06% # Class of committed instruction
system.cpu.op_class_0::SimdMultAcc                  0      0.00%     53.06% # Class of committed instruction
system.cpu.op_class_0::SimdShift                    0      0.00%     53.06% # Class of committed instruction
system.cpu.op_class_0::SimdShiftAcc                 0      0.00%     53.06% # Class of committed instruction
system.cpu.op_class_0::SimdDiv                      0      0.00%     53.06% # Class of committed instruction
system.cpu.op_class_0::SimdSqrt                     0      0.00%     53.06% # Class of committed instruction
system.cpu.op_class_0::SimdFloatAdd                 0      0.00%     53.06% # Class of committed instruction
system.cpu.op_class_0::SimdFloatAlu                 0      0.00%     53.06% # Class of committed instruction
system.cpu.op_class_0::SimdFloatCmp                 0      0.00%     53.06% # Class of committed instruction
system.cpu.op_class_0::SimdFloatCvt                 0      0.00%     53.06% # Class of committed instruction
system.cpu.op_class_0::SimdFloatDiv                 0      0.00%     53.06% # Class of committed instruction
system.cpu.op_class_0::SimdFloatMisc               24      0.00%     53.06% # Class of committed instruction
system.cpu.op_class_0::SimdFloatMult                0      0.00%     53.06% # Class of committed instruction
system.cpu.op_class_0::SimdFloatMultAcc             0      0.00%     53.06% # Class of committed instruction
system.cpu.op_class_0::SimdFloatSqrt                0      0.00%     53.06% # Class of committed instruction
system.cpu.op_class_0::SimdReduceAdd                0      0.00%     53.06% # Class of committed instruction
system.cpu.op_class_0::SimdReduceAlu                0      0.00%     53.06% # Class of committed instruction
system.cpu.op_class_0::SimdReduceCmp                0      0.00%     53.06% # Class of committed instruction
system.cpu.op_class_0::SimdFloatReduceAdd            0      0.00%     53.06% # Class of committed instruction
system.cpu.op_class_0::SimdFloatReduceCmp            0      0.00%     53.06% # Class of committed instruction
system.cpu.op_class_0::SimdAes                      0      0.00%     53.06% # Class of committed instruction
system.cpu.op_class_0::SimdAesMix                   0      0.00%     53.06% # Class of committed instruction
system.cpu.op_class_0::SimdSha1Hash                 0      0.00%     53.06% # Class of committed instruction
system.cpu.op_class_0::SimdSha1Hash2                0      0.00%     53.06% # Class of committed instruction
system.cpu.op_class_0::SimdSha256Hash               0      0.00%     53.06% # Class of committed instruction
system.cpu.op_class_0::SimdSha256Hash2              0      0.00%     53.06% # Class of committed instruction
system.cpu.op_class_0::SimdShaSigma2                0      0.00%     53.06% # Class of committed instruction
system.cpu.op_class_0::SimdShaSigma3                0      0.00%     53.06% # Class of committed instruction
system.cpu.op_class_0::SimdPredAlu                  0      0.00%     53.06% # Class of committed instruction
system.cpu.op_class_0::MemRead                2082677      1.13%     54.20% # Class of committed instruction
system.cpu.op_class_0::MemWrite              84380886     45.80%    100.00% # Class of committed instruction
system.cpu.op_class_0::FloatMemRead                 0      0.00%    100.00% # Class of committed instruction
system.cpu.op_class_0::FloatMemWrite                0      0.00%    100.00% # Class of committed instruction
system.cpu.op_class_0::IprAccess                    0      0.00%    100.00% # Class of committed instruction
system.cpu.op_class_0::InstPrefetch                 0      0.00%    100.00% # Class of committed instruction
system.cpu.op_class_0::total                184218784                       # Class of committed instruction
system.cpu.tickCycles                       217733775                       # Number of cycles that the object actually ticked
system.cpu.workload.numSyscalls                    19                       # Number of system calls
system.membus.snoop_filter.hit_multi_requests            0                       # Number of requests hitting in the snoop filter with multiple (>1) holders of the requested data.
system.membus.snoop_filter.hit_multi_snoops            0                       # Number of snoops hitting in the snoop filter with multiple (>1) holders of the requested data.
system.membus.snoop_filter.hit_single_requests      1299634                       # Number of requests hitting in the snoop filter with a single holder of the requested data.
system.membus.snoop_filter.hit_single_snoops            0                       # Number of snoops hitting in the snoop filter with a single holder of the requested data.
system.membus.snoop_filter.tot_requests       2615908                       # Total number of requests made to the snoop filter.
system.membus.snoop_filter.tot_snoops               0                       # Total number of snoops made to the snoop filter.
system.tol2bus.snoop_filter.hit_multi_requests           56                       # Number of requests hitting in the snoop filter with multiple (>1) holders of the requested data.
system.tol2bus.snoop_filter.hit_multi_snoops            0                       # Number of snoops hitting in the snoop filter with multiple (>1) holders of the requested data.
system.tol2bus.snoop_filter.hit_single_requests      1315563                       # Number of requests hitting in the snoop filter with a single holder of the requested data.
system.tol2bus.snoop_filter.hit_single_snoops          288                       # Number of snoops hitting in the snoop filter with a single holder of the requested data.
system.tol2bus.snoop_filter.tot_requests      2631910                       # Total number of requests made to the snoop filter.
system.tol2bus.snoop_filter.tot_snoops            288                       # Total number of snoops made to the snoop filter.
system.clk_domain.clock                          1000                       # Clock period in ticks
system.cpu.branchPred.lookups                10658358                       # Number of BP lookups
system.cpu.branchPred.condPredicted          10650064                       # Number of conditional branches predicted
system.cpu.branchPred.condIncorrect              1449                       # Number of conditional branches incorrect
system.cpu.branchPred.BTBLookups             10650244                       # Number of BTB lookups
system.cpu.branchPred.BTBHits                10648838                       # Number of BTB hits
system.cpu.branchPred.BTBHitPct             99.986798                       # BTB Hit Percentage
system.cpu.branchPred.RASUsed                    2732                       # Number of times the RAS was used to get a target.
system.cpu.branchPred.RASIncorrect                  1                       # Number of incorrect RAS predictions.
system.cpu.branchPred.indirectLookups             194                       # Number of indirect predictor lookups.
system.cpu.branchPred.indirectHits                 19                       # Number of indirect target hits.
system.cpu.branchPred.indirectMisses              175                       # Number of indirect misses.
system.cpu.branchPred.indirectMispredicted          101                       # Number of mispredicted indirect branches.
system.cpu.dcache.demand_hits::.cpu.data     83749407                       # number of demand (read+write) hits
system.cpu.dcache.demand_hits::total         83749407                       # number of demand (read+write) hits
system.cpu.dcache.overall_hits::.cpu.data     83749462                       # number of overall hits
system.cpu.dcache.overall_hits::total        83749462                       # number of overall hits
system.cpu.dcache.demand_misses::.cpu.data      2631208                       # number of demand (read+write) misses
system.cpu.dcache.demand_misses::total        2631208                       # number of demand (read+write) misses
system.cpu.dcache.overall_misses::.cpu.data      2631224                       # number of overall misses
system.cpu.dcache.overall_misses::total       2631224                       # number of overall misses
system.cpu.dcache.demand_miss_latency::.cpu.data 350375257000                       # number of demand (read+write) miss cycles
system.cpu.dcache.demand_miss_latency::total 350375257000                       # number of demand (read+write) miss cycles
system.cpu.dcache.overall_miss_latency::.cpu.data 350375257000                       # number of overall miss cycles
system.cpu.dcache.overall_miss_latency::total 350375257000                       # number of overall miss cycles
system.cpu.dcache.demand_accesses::.cpu.data     86380615                       # number of demand (read+write) accesses
system.cpu.dcache.demand_accesses::total     86380615                       # number of demand (read+write) accesses
system.cpu.dcache.overall_accesses::.cpu.data     86380686                       # number of overall (read+write) accesses
system.cpu.dcache.overall_accesses::total     86380686                       # number of overall (read+write) accesses
system.cpu.dcache.demand_miss_rate::.cpu.data     0.030461                       # miss rate for demand accesses
system.cpu.dcache.demand_miss_rate::total     0.030461                       # miss rate for demand accesses
system.cpu.dcache.overall_miss_rate::.cpu.data     0.030461                       # miss rate for overall accesses
system.cpu.dcache.overall_miss_rate::total     0.030461                       # miss rate for overall accesses
system.cpu.dcache.demand_avg_miss_latency::.cpu.data 133161.368086                       # average overall miss latency
system.cpu.dcache.demand_avg_miss_latency::total 133161.368086                       # average overall miss latency
system.cpu.dcache.overall_avg_miss_latency::.cpu.data 133160.558356                       # average overall miss latency
system.cpu.dcache.overall_avg_miss_latency::total 133160.558356                       # average overall miss latency
system.cpu.dcache.blocked_cycles::no_mshrs            0                       # number of cycles access was blocked
system.cpu.dcache.blocked_cycles::no_targets            0                       # number of cycles access was blocked
system.cpu.dcache.blocked::no_mshrs                 0                       # number of cycles access was blocked
system.cpu.dcache.blocked::no_targets               0                       # number of cycles access was blocked
system.cpu.dcache.avg_blocked_cycles::no_mshrs          nan                       # average number of cycles each access was blocked
system.cpu.dcache.avg_blocked_cycles::no_targets          nan                       # average number of cycles each access was blocked
system.cpu.dcache.writebacks::.writebacks      1315399                       # number of writebacks
system.cpu.dcache.writebacks::total           1315399                       # number of writebacks
system.cpu.dcache.demand_mshr_hits::.cpu.data      1315141                       # number of demand (read+write) MSHR hits
system.cpu.dcache.demand_mshr_hits::total      1315141                       # number of demand (read+write) MSHR hits
system.cpu.dcache.overall_mshr_hits::.cpu.data      1315141                       # number of overall MSHR hits
system.cpu.dcache.overall_mshr_hits::total      1315141                       # number of overall MSHR hits
system.cpu.dcache.demand_mshr_misses::.cpu.data      1316067                       # number of demand (read+write) MSHR misses
system.cpu.dcache.demand_mshr_misses::total      1316067                       # number of demand (read+write) MSHR misses
system.cpu.dcache.overall_mshr_misses::.cpu.data      1316075                       # number of overall MSHR misses
system.cpu.dcache.overall_mshr_misses::total      1316075                       # number of overall MSHR misses
system.cpu.dcache.demand_mshr_miss_latency::.cpu.data 168015215000                       # number of demand (read+write) MSHR miss cycles
system.cpu.dcache.demand_mshr_miss_latency::total 168015215000                       # number of demand (read+write) MSHR miss cycles
system.cpu.dcache.overall_mshr_miss_latency::.cpu.data 168016287000                       # number of overall MSHR miss cycles
system.cpu.dcache.overall_mshr_miss_latency::total 168016287000                       # number of overall MSHR miss cycles
system.cpu.dcache.demand_mshr_miss_rate::.cpu.data     0.015236                       # mshr miss rate for demand accesses
system.cpu.dcache.demand_mshr_miss_rate::total     0.015236                       # mshr miss rate for demand accesses
system.cpu.dcache.overall_mshr_miss_rate::.cpu.data     0.015236                       # mshr miss rate for overall accesses
system.cpu.dcache.overall_mshr_miss_rate::total     0.015236                       # mshr miss rate for overall accesses
system.cpu.dcache.demand_avg_mshr_miss_latency::.cpu.data 127664.636375                       # average overall mshr miss latency
system.cpu.dcache.demand_avg_mshr_miss_latency::total 127664.636375                       # average overall mshr miss latency
system.cpu.dcache.overall_avg_mshr_miss_latency::.cpu.data 127664.674886                       # average overall mshr miss latency
system.cpu.dcache.overall_avg_mshr_miss_latency::total 127664.674886                       # average overall mshr miss latency
system.cpu.dcache.replacements                1315563                       # number of replacements
system.cpu.dcache.ReadReq_hits::.cpu.data      2043843                       # number of ReadReq hits
system.cpu.dcache.ReadReq_hits::total         2043843                       # number of ReadReq hits
system.cpu.dcache.ReadReq_misses::.cpu.data          206                       # number of ReadReq misses
system.cpu.dcache.ReadReq_misses::total           206                       # number of ReadReq misses
system.cpu.dcache.ReadReq_miss_latency::.cpu.data     23328000                       # number of ReadReq miss cycles
system.cpu.dcache.ReadReq_miss_latency::total     23328000                       # number of ReadReq miss cycles
system.cpu.dcache.ReadReq_accesses::.cpu.data      2044049                       # number of ReadReq accesses(hits+misses)
system.cpu.dcache.ReadReq_accesses::total      2044049                       # number of ReadReq accesses(hits+misses)
system.cpu.dcache.ReadReq_miss_rate::.cpu.data     0.000101                       # miss rate for ReadReq accesses
system.cpu.dcache.ReadReq_miss_rate::total     0.000101                       # miss rate for ReadReq accesses
system.cpu.dcache.ReadReq_avg_miss_latency::.cpu.data 113242.718447                       # average ReadReq miss latency
system.cpu.dcache.ReadReq_avg_miss_latency::total 113242.718447                       # average ReadReq miss latency
system.cpu.dcache.ReadReq_mshr_hits::.cpu.data           22                       # number of ReadReq MSHR hits
system.cpu.dcache.ReadReq_mshr_hits::total           22                       # number of ReadReq MSHR hits
system.cpu.dcache.ReadReq_mshr_misses::.cpu.data          184                       # number of ReadReq MSHR misses
system.cpu.dcache.ReadReq_mshr_misses::total          184                       # number of ReadReq MSHR misses
system.cpu.dcache.ReadReq_mshr_miss_latency::.cpu.data     20826000                       # number of ReadReq MSHR miss cycles
system.cpu.dcache.ReadReq_mshr_miss_latency::total     20826000                       # number of ReadReq MSHR miss cycles
system.cpu.dcache.ReadReq_mshr_miss_rate::.cpu.data     0.000090                       # mshr miss rate for ReadReq accesses
system.cpu.dcache.ReadReq_mshr_miss_rate::total     0.000090                       # mshr miss rate for ReadReq accesses
system.cpu.dcache.ReadReq_avg_mshr_miss_latency::.cpu.data 113184.782609                       # average ReadReq mshr miss latency
system.cpu.dcache.ReadReq_avg_mshr_miss_latency::total 113184.782609                       # average ReadReq mshr miss latency
system.cpu.dcache.WriteReq_hits::.cpu.data     81705564                       # number of WriteReq hits
system.cpu.dcache.WriteReq_hits::total       81705564                       # number of WriteReq hits
system.cpu.dcache.WriteReq_misses::.cpu.data      2631002                       # number of WriteReq misses
system.cpu.dcache.WriteReq_misses::total      2631002                       # number of WriteReq misses
system.cpu.dcache.WriteReq_miss_latency::.cpu.data 350351929000                       # number of WriteReq miss cycles
system.cpu.dcache.WriteReq_miss_latency::total 350351929000                       # number of WriteReq miss cycles
system.cpu.dcache.WriteReq_accesses::.cpu.data     84336566                       # number of WriteReq accesses(hits+misses)
system.cpu.dcache.WriteReq_accesses::total     84336566                       # number of WriteReq accesses(hits+misses)
system.cpu.dcache.WriteReq_miss_rate::.cpu.data     0.031196                       # miss rate for WriteReq accesses
system.cpu.dcache.WriteReq_miss_rate::total     0.031196                       # miss rate for WriteReq accesses
system.cpu.dcache.WriteReq_avg_miss_latency::.cpu.data 133162.927660                       # average WriteReq miss latency
system.cpu.dcache.WriteReq_avg_miss_latency::total 133162.927660                       # average WriteReq miss latency
system.cpu.dcache.WriteReq_mshr_hits::.cpu.data      1315119                       # number of WriteReq MSHR hits
system.cpu.dcache.WriteReq_mshr_hits::total      1315119                       # number of WriteReq MSHR hits
system.cpu.dcache.WriteReq_mshr_misses::.cpu.data      1315883                       # number of WriteReq MSHR misses
system.cpu.dcache.WriteReq_mshr_misses::total      1315883                       # number of WriteReq MSHR misses
system.cpu.dcache.WriteReq_mshr_miss_latency::.cpu.data 167994389000                       # number of WriteReq MSHR miss cycles
system.cpu.dcache.WriteReq_mshr_miss_latency::total 167994389000                       # number of WriteReq MSHR miss cycles
system.cpu.dcache.WriteReq_mshr_miss_rate::.cpu.data     0.015603                       # mshr miss rate for WriteReq accesses
system.cpu.dcache.WriteReq_mshr_miss_rate::total     0.015603                       # mshr miss rate for WriteReq accesses
system.cpu.dcache.WriteReq_avg_mshr_miss_latency::.cpu.data 127666.661094                       # average WriteReq mshr miss latency
system.cpu.dcache.WriteReq_avg_mshr_miss_latency::total 127666.661094                       # average WriteReq mshr miss latency
system.cpu.dcache.SoftPFReq_hits::.cpu.data           55                       # number of SoftPFReq hits
system.cpu.dcache.SoftPFReq_hits::total            55                       # number of SoftPFReq hits
system.cpu.dcache.SoftPFReq_misses::.cpu.data           16                       # number of SoftPFReq misses
system.cpu.dcache.SoftPFReq_misses::total           16                       # number of SoftPFReq misses
system.cpu.dcache.SoftPFReq_accesses::.cpu.data           71                       # number of SoftPFReq accesses(hits+misses)
system.cpu.dcache.SoftPFReq_accesses::total           71                       # number of SoftPFReq accesses(hits+misses)
system.cpu.dcache.SoftPFReq_miss_rate::.cpu.data     0.225352                       # miss rate for SoftPFReq accesses
system.cpu.dcache.SoftPFReq_miss_rate::total     0.225352                       # miss rate for SoftPFReq accesses
system.cpu.dcache.SoftPFReq_mshr_misses::.cpu.data            8                       # number of SoftPFReq MSHR misses
system.cpu.dcache.SoftPFReq_mshr_misses::total            8                       # number of SoftPFReq MSHR misses
system.cpu.dcache.SoftPFReq_mshr_miss_latency::.cpu.data      1072000                       # number of SoftPFReq MSHR miss cycles
system.cpu.dcache.SoftPFReq_mshr_miss_latency::total      1072000                       # number of SoftPFReq MSHR miss cycles
system.cpu.dcache.SoftPFReq_mshr_miss_rate::.cpu.data     0.112676                       # mshr miss rate for SoftPFReq accesses
system.cpu.dcache.SoftPFReq_mshr_miss_rate::total     0.112676                       # mshr miss rate for SoftPFReq accesses
system.cpu.dcache.SoftPFReq_avg_mshr_miss_latency::.cpu.data       134000                       # average SoftPFReq mshr miss latency
system.cpu.dcache.SoftPFReq_avg_mshr_miss_latency::total       134000                       # average SoftPFReq mshr miss latency
system.cpu.dcache.LoadLockedReq_hits::.cpu.data           34                       # number of LoadLockedReq hits
system.cpu.dcache.LoadLockedReq_hits::total           34                       # number of LoadLockedReq hits
system.cpu.dcache.LoadLockedReq_accesses::.cpu.data           34                       # number of LoadLockedReq accesses(hits+misses)
system.cpu.dcache.LoadLockedReq_accesses::total           34                       # number of LoadLockedReq accesses(hits+misses)
system.cpu.dcache.StoreCondReq_hits::.cpu.data           34                       # number of StoreCondReq hits
system.cpu.dcache.StoreCondReq_hits::total           34                       # number of StoreCondReq hits
system.cpu.dcache.StoreCondReq_accesses::.cpu.data           34                       # number of StoreCondReq accesses(hits+misses)
system.cpu.dcache.StoreCondReq_accesses::total           34                       # number of StoreCondReq accesses(hits+misses)
system.cpu.dcache.power_state.pwrStateResidencyTicks::UNDEFINED 371468424000                       # Cumulative time (in ticks) in various power states
system.cpu.dcache.tags.tagsinuse           511.154592                       # Cycle average of tags in use
system.cpu.dcache.tags.total_refs            85065605                       # Total number of references to valid blocks.
system.cpu.dcache.tags.sampled_refs           1316075                       # Sample count of references to valid blocks.
system.cpu.dcache.tags.avg_refs             64.635834                       # Average number of references to valid blocks.
system.cpu.dcache.tags.warmup_cycle            258000                       # Cycle when the warmup percentage was hit.
system.cpu.dcache.tags.occ_blocks::.cpu.data   511.154592                       # Average occupied blocks per requestor
system.cpu.dcache.tags.occ_percent::.cpu.data     0.998349                       # Average percentage of cache occupancy
system.cpu.dcache.tags.occ_percent::total     0.998349                       # Average percentage of cache occupancy
system.cpu.dcache.tags.occ_task_id_blocks::1024          512                       # Occupied blocks per task id
system.cpu.dcache.tags.age_task_id_blocks_1024::0           36                       # Occupied blocks per task id
system.cpu.dcache.tags.age_task_id_blocks_1024::1          324                       # Occupied blocks per task id
system.cpu.dcache.tags.age_task_id_blocks_1024::2          152                       # Occupied blocks per task id
system.cpu.dcache.tags.occ_task_id_percent::1024            1                       # Percentage of cache occupancy per task id
system.cpu.dcache.tags.tag_accesses         346839091                       # Number of tag accesses
system.cpu.dcache.tags.data_accesses        346839091                       # Number of data accesses
system.cpu.dcache.tags.power_state.pwrStateResidencyTicks::UNDEFINED 371468424000                       # Cumulative time (in ticks) in various power states
system.cpu.dtb.instHits                             0                       # ITB inst hits
system.cpu.dtb.instMisses                           0                       # ITB inst misses
system.cpu.dtb.readHits                             0                       # DTB read hits
system.cpu.dtb.readMisses                           0                       # DTB read misses
system.cpu.dtb.writeHits                            0                       # DTB write hits
system.cpu.dtb.writeMisses                          0                       # DTB write misses
system.cpu.dtb.inserts                              0                       # Number of times an entry is inserted into the TLB
system.cpu.dtb.flushTlb                             0                       # Number of times complete TLB was flushed
system.cpu.dtb.flushTlbMva                          0                       # Number of times TLB was flushed by MVA
system.cpu.dtb.flushTlbMvaAsid                      0                       # Number of times TLB was flushed by MVA & ASID
system.cpu.dtb.flushTlbAsid                         0                       # Number of times TLB was flushed by ASID
system.cpu.dtb.flushedEntries                       0                       # Number of entries that have been flushed from TLB
system.cpu.dtb.alignFaults                          0                       # Number of TLB faults due to alignment restrictions
system.cpu.dtb.prefetchFaults                       0                       # Number of TLB faults due to prefetch
system.cpu.dtb.domainFaults                         0                       # Number of TLB faults due to domain restrictions
system.cpu.dtb.permsFaults                          0                       # Number of TLB faults due to permissions restrictions
system.cpu.dtb.readAccesses                         0                       # DTB read accesses
system.cpu.dtb.writeAccesses                        0                       # DTB write accesses
system.cpu.dtb.instAccesses                         0                       # ITB inst accesses
system.cpu.dtb.hits                                 0                       # Total TLB (inst and data) hits
system.cpu.dtb.misses                               0                       # Total TLB (inst and data) misses
system.cpu.dtb.accesses                             0                       # Total TLB (inst and data) accesses
system.cpu.dtb.stage2_mmu.stage2_tlb.instHits            0                       # ITB inst hits
system.cpu.dtb.stage2_mmu.stage2_tlb.instMisses            0                       # ITB inst misses
system.cpu.dtb.stage2_mmu.stage2_tlb.readHits            0                       # DTB read hits
system.cpu.dtb.stage2_mmu.stage2_tlb.readMisses            0                       # DTB read misses
system.cpu.dtb.stage2_mmu.stage2_tlb.writeHits            0                       # DTB write hits
system.cpu.dtb.stage2_mmu.stage2_tlb.writeMisses            0                       # DTB write misses
system.cpu.dtb.stage2_mmu.stage2_tlb.inserts            0                       # Number of times an entry is inserted into the TLB
system.cpu.dtb.stage2_mmu.stage2_tlb.flushTlb            0                       # Number of times complete TLB was flushed
system.cpu.dtb.stage2_mmu.stage2_tlb.flushTlbMva            0                       # Number of times TLB was flushed by MVA
system.cpu.dtb.stage2_mmu.stage2_tlb.flushTlbMvaAsid            0                       # Number of times TLB was flushed by MVA & ASID
system.cpu.dtb.stage2_mmu.stage2_tlb.flushTlbAsid            0                       # Number of times TLB was flushed by ASID
system.cpu.dtb.stage2_mmu.stage2_tlb.flushedEntries            0                       # Number of entries that have been flushed from TLB
system.cpu.dtb.stage2_mmu.stage2_tlb.alignFaults            0                       # Number of TLB faults due to alignment restrictions
system.cpu.dtb.stage2_mmu.stage2_tlb.prefetchFaults            0                       # Number of TLB faults due to prefetch
system.cpu.dtb.stage2_mmu.stage2_tlb.domainFaults            0                       # Number of TLB faults due to domain restrictions
system.cpu.dtb.stage2_mmu.stage2_tlb.permsFaults            0                       # Number of TLB faults due to permissions restrictions
system.cpu.dtb.stage2_mmu.stage2_tlb.readAccesses            0                       # DTB read accesses
system.cpu.dtb.stage2_mmu.stage2_tlb.writeAccesses            0                       # DTB write accesses
system.cpu.dtb.stage2_mmu.stage2_tlb.instAccesses            0                       # ITB inst accesses
system.cpu.dtb.stage2_mmu.stage2_tlb.hits            0                       # Total TLB (inst and data) hits
system.cpu.dtb.stage2_mmu.stage2_tlb.misses            0                       # Total TLB (inst and data) misses
system.cpu.dtb.stage2_mmu.stage2_tlb.accesses            0                       # Total TLB (inst and data) accesses
system.cpu.dtb.stage2_mmu.stage2_tlb.walker.walks            0                       # Table walker walks requested
system.cpu.dtb.stage2_mmu.stage2_tlb.walker.requestOrigin_Requested::Data            0                       # Table walker requests started/completed, data/inst
system.cpu.dtb.stage2_mmu.stage2_tlb.walker.requestOrigin_Requested::Inst            0                       # Table walker requests started/completed, data/inst
system.cpu.dtb.stage2_mmu.stage2_tlb.walker.requestOrigin_Requested::total            0                       # Table walker requests started/completed, data/inst
system.cpu.dtb.stage2_mmu.stage2_tlb.walker.requestOrigin_Completed::Data            0                       # Table walker requests started/completed, data/inst
system.cpu.dtb.stage2_mmu.stage2_tlb.walker.requestOrigin_Completed::Inst            0                       # Table walker requests started/completed, data/inst
system.cpu.dtb.stage2_mmu.stage2_tlb.walker.requestOrigin_Completed::total            0                       # Table walker requests started/completed, data/inst
system.cpu.dtb.stage2_mmu.stage2_tlb.walker.requestOrigin::total            0                       # Table walker requests started/completed, data/inst
system.cpu.dtb.stage2_mmu.stage2_tlb.walker.power_state.pwrStateResidencyTicks::UNDEFINED 371468424000                       # Cumulative time (in ticks) in various power states
system.cpu.dtb.walker.walks                         0                       # Table walker walks requested
system.cpu.dtb.walker.requestOrigin_Requested::Data            0                       # Table walker requests started/completed, data/inst
system.cpu.dtb.walker.requestOrigin_Requested::Inst            0                       # Table walker requests started/completed, data/inst
system.cpu.dtb.walker.requestOrigin_Requested::total            0                       # Table walker requests started/completed, data/inst
system.cpu.dtb.walker.requestOrigin_Completed::Data            0                       # Table walker requests started/completed, data/inst
system.cpu.dtb.walker.requestOrigin_Completed::Inst            0                       # Table walker requests started/completed, data/inst
system.cpu.dtb.walker.requestOrigin_Completed::total            0                       # Table walker requests started/completed, data/inst
system.cpu.dtb.walker.requestOrigin::total            0                       # Table walker requests started/completed, data/inst
system.cpu.dtb.walker.power_state.pwrStateResidencyTicks::UNDEFINED 371468424000                       # Cumulative time (in ticks) in various power states
system.cpu.fetch2.intInstructions            45071343                       # Number of integer instructions successfully decoded
system.cpu.fetch2.fpInstructions                    0                       # Number of floating point instructions successfully decoded
system.cpu.fetch2.vecInstructions                   0                       # Number of SIMD instructions successfully decoded
system.cpu.fetch2.loadInstructions            2086499                       # Number of memory load instructions successfully decoded
system.cpu.fetch2.storeInstructions            169205                       # Number of memory store instructions successfully decoded
system.cpu.fetch2.amoInstructions                   0                       # Number of memory atomic instructions successfully decoded
system.cpu.icache.demand_hits::.cpu.inst     32004708                       # number of demand (read+write) hits
system.cpu.icache.demand_hits::total         32004708                       # number of demand (read+write) hits
system.cpu.icache.overall_hits::.cpu.inst     32004708                       # number of overall hits
system.cpu.icache.overall_hits::total        32004708                       # number of overall hits
system.cpu.icache.demand_misses::.cpu.inst          272                       # number of demand (read+write) misses
system.cpu.icache.demand_misses::total            272                       # number of demand (read+write) misses
system.cpu.icache.overall_misses::.cpu.inst          272                       # number of overall misses
system.cpu.icache.overall_misses::total           272                       # number of overall misses
system.cpu.icache.demand_miss_latency::.cpu.inst     33706000                       # number of demand (read+write) miss cycles
system.cpu.icache.demand_miss_latency::total     33706000                       # number of demand (read+write) miss cycles
system.cpu.icache.overall_miss_latency::.cpu.inst     33706000                       # number of overall miss cycles
system.cpu.icache.overall_miss_latency::total     33706000                       # number of overall miss cycles
system.cpu.icache.demand_accesses::.cpu.inst     32004980                       # number of demand (read+write) accesses
system.cpu.icache.demand_accesses::total     32004980                       # number of demand (read+write) accesses
system.cpu.icache.overall_accesses::.cpu.inst     32004980                       # number of overall (read+write) accesses
system.cpu.icache.overall_accesses::total     32004980                       # number of overall (read+write) accesses
system.cpu.icache.demand_miss_rate::.cpu.inst     0.000008                       # miss rate for demand accesses
system.cpu.icache.demand_miss_rate::total     0.000008                       # miss rate for demand accesses
system.cpu.icache.overall_miss_rate::.cpu.inst     0.000008                       # miss rate for overall accesses
system.cpu.icache.overall_miss_rate::total     0.000008                       # miss rate for overall accesses
system.cpu.icache.demand_avg_miss_latency::.cpu.inst 123919.117647                       # average overall miss latency
system.cpu.icache.demand_avg_miss_latency::total 123919.117647                       # average overall miss latency
system.cpu.icache.overall_avg_miss_latency::.cpu.inst 123919.117647                       # average overall miss latency
system.cpu.icache.overall_avg_miss_latency::total 123919.117647                       # average overall miss latency
system.cpu.icache.blocked_cycles::no_mshrs            0                       # number of cycles access was blocked
system.cpu.icache.blocked_cycles::no_targets            0                       # number of cycles access was blocked
system.cpu.icache.blocked::no_mshrs                 0                       # number of cycles access was blocked
system.cpu.icache.blocked::no_targets               0                       # number of cycles access was blocked
system.cpu.icache.avg_blocked_cycles::no_mshrs          nan                       # average number of cycles each access was blocked
system.cpu.icache.avg_blocked_cycles::no_targets          nan                       # average number of cycles each access was blocked
system.cpu.icache.demand_mshr_misses::.cpu.inst          272                       # number of demand (read+write) MSHR misses
system.cpu.icache.demand_mshr_misses::total          272                       # number of demand (read+write) MSHR misses
system.cpu.icache.overall_mshr_misses::.cpu.inst          272                       # number of overall MSHR misses
system.cpu.icache.overall_mshr_misses::total          272                       # number of overall MSHR misses
system.cpu.icache.demand_mshr_miss_latency::.cpu.inst     33162000                       # number of demand (read+write) MSHR miss cycles
system.cpu.icache.demand_mshr_miss_latency::total     33162000                       # number of demand (read+write) MSHR miss cycles
system.cpu.icache.overall_mshr_miss_latency::.cpu.inst     33162000                       # number of overall MSHR miss cycles
system.cpu.icache.overall_mshr_miss_latency::total     33162000                       # number of overall MSHR miss cycles
system.cpu.icache.demand_mshr_miss_rate::.cpu.inst     0.000008                       # mshr miss rate for demand accesses
system.cpu.icache.demand_mshr_miss_rate::total     0.000008                       # mshr miss rate for demand accesses
system.cpu.icache.overall_mshr_miss_rate::.cpu.inst     0.000008                       # mshr miss rate for overall accesses
system.cpu.icache.overall_mshr_miss_rate::total     0.000008                       # mshr miss rate for overall accesses
system.cpu.icache.demand_avg_mshr_miss_latency::.cpu.inst 121919.117647                       # average overall mshr miss latency
system.cpu.icache.demand_avg_mshr_miss_latency::total 121919.117647                       # average overall mshr miss latency
system.cpu.icache.overall_avg_mshr_miss_latency::.cpu.inst 121919.117647                       # average overall mshr miss latency
system.cpu.icache.overall_avg_mshr_miss_latency::total 121919.117647                       # average overall mshr miss latency
system.cpu.icache.replacements                      0                       # number of replacements
system.cpu.icache.ReadReq_hits::.cpu.inst     32004708                       # number of ReadReq hits
system.cpu.icache.ReadReq_hits::total        32004708                       # number of ReadReq hits
system.cpu.icache.ReadReq_misses::.cpu.inst          272                       # number of ReadReq misses
system.cpu.icache.ReadReq_misses::total           272                       # number of ReadReq misses
system.cpu.icache.ReadReq_miss_latency::.cpu.inst     33706000                       # number of ReadReq miss cycles
system.cpu.icache.ReadReq_miss_latency::total     33706000                       # number of ReadReq miss cycles
system.cpu.icache.ReadReq_accesses::.cpu.inst     32004980                       # number of ReadReq accesses(hits+misses)
system.cpu.icache.ReadReq_accesses::total     32004980                       # number of ReadReq accesses(hits+misses)
system.cpu.icache.ReadReq_miss_rate::.cpu.inst     0.000008                       # miss rate for ReadReq accesses
system.cpu.icache.ReadReq_miss_rate::total     0.000008                       # miss rate for ReadReq accesses
system.cpu.icache.ReadReq_avg_miss_latency::.cpu.inst 123919.117647                       # average ReadReq miss latency
system.cpu.icache.ReadReq_avg_miss_latency::total 123919.117647                       # average ReadReq miss latency
system.cpu.icache.ReadReq_mshr_misses::.cpu.inst          272                       # number of ReadReq MSHR misses
system.cpu.icache.ReadReq_mshr_misses::total          272                       # number of ReadReq MSHR misses
system.cpu.icache.ReadReq_mshr_miss_latency::.cpu.inst     33162000                       # number of ReadReq MSHR miss cycles
system.cpu.icache.ReadReq_mshr_miss_latency::total     33162000                       # number of ReadReq MSHR miss cycles
system.cpu.icache.ReadReq_mshr_miss_rate::.cpu.inst     0.000008                       # mshr miss rate for ReadReq accesses
system.cpu.icache.ReadReq_mshr_miss_rate::total     0.000008                       # mshr miss rate for ReadReq accesses
system.cpu.icache.ReadReq_avg_mshr_miss_latency::.cpu.inst 121919.117647                       # average ReadReq mshr miss latency
system.cpu.icache.ReadReq_avg_mshr_miss_latency::total 121919.117647                       # average ReadReq mshr miss latency
system.cpu.icache.power_state.pwrStateResidencyTicks::UNDEFINED 371468424000                       # Cumulative time (in ticks) in various power states
system.cpu.icache.tags.tagsinuse           233.686245                       # Cycle average of tags in use
system.cpu.icache.tags.total_refs            32004980                       # Total number of references to valid blocks.
system.cpu.icache.tags.sampled_refs               272                       # Sample count of references to valid blocks.
system.cpu.icache.tags.avg_refs          117665.367647                       # Average number of references to valid blocks.
system.cpu.icache.tags.warmup_cycle            123000                       # Cycle when the warmup percentage was hit.
system.cpu.icache.tags.occ_blocks::.cpu.inst   233.686245                       # Average occupied blocks per requestor
system.cpu.icache.tags.occ_percent::.cpu.inst     0.456418                       # Average percentage of cache occupancy
system.cpu.icache.tags.occ_percent::total     0.456418                       # Average percentage of cache occupancy
system.cpu.icache.tags.occ_task_id_blocks::1024          272                       # Occupied blocks per task id
system.cpu.icache.tags.age_task_id_blocks_1024::4          272                       # Occupied blocks per task id
system.cpu.icache.tags.occ_task_id_percent::1024     0.531250                       # Percentage of cache occupancy per task id
system.cpu.icache.tags.tag_accesses         128020192                       # Number of tag accesses
system.cpu.icache.tags.data_accesses        128020192                       # Number of data accesses
system.cpu.icache.tags.power_state.pwrStateResidencyTicks::UNDEFINED 371468424000                       # Cumulative time (in ticks) in various power states
system.cpu.itb.instHits                             0                       # ITB inst hits
system.cpu.itb.instMisses                           0                       # ITB inst misses
system.cpu.itb.readHits                             0                       # DTB read hits
system.cpu.itb.readMisses                           0                       # DTB read misses
system.cpu.itb.writeHits                            0                       # DTB write hits
system.cpu.itb.writeMisses                          0                       # DTB write misses
system.cpu.itb.inserts                              0                       # Number of times an entry is inserted into the TLB
system.cpu.itb.flushTlb                             0                       # Number of times complete TLB was flushed
system.cpu.itb.flushTlbMva                          0                       # Number of times TLB was flushed by MVA
system.cpu.itb.flushTlbMvaAsid                      0                       # Number of times TLB was flushed by MVA & ASID
system.cpu.itb.flushTlbAsid                         0                       # Number of times TLB was flushed by ASID
system.cpu.itb.flushedEntries                       0                       # Number of entries that have been flushed from TLB
system.cpu.itb.alignFaults                          0                       # Number of TLB faults due to alignment restrictions
system.cpu.itb.prefetchFaults                       0                       # Number of TLB faults due to prefetch
system.cpu.itb.domainFaults                         0                       # Number of TLB faults due to domain restrictions
system.cpu.itb.permsFaults                          0                       # Number of TLB faults due to permissions restrictions
system.cpu.itb.readAccesses                         0                       # DTB read accesses
system.cpu.itb.writeAccesses                        0                       # DTB write accesses
system.cpu.itb.instAccesses                         0                       # ITB inst accesses
system.cpu.itb.hits                                 0                       # Total TLB (inst and data) hits
system.cpu.itb.misses                               0                       # Total TLB (inst and data) misses
system.cpu.itb.accesses                             0                       # Total TLB (inst and data) accesses
system.cpu.itb.stage2_mmu.stage2_tlb.instHits            0                       # ITB inst hits
system.cpu.itb.stage2_mmu.stage2_tlb.instMisses            0                       # ITB inst misses
system.cpu.itb.stage2_mmu.stage2_tlb.readHits            0                       # DTB read hits
system.cpu.itb.stage2_mmu.stage2_tlb.readMisses            0                       # DTB read misses
system.cpu.itb.stage2_mmu.stage2_tlb.writeHits            0                       # DTB write hits
system.cpu.itb.stage2_mmu.stage2_tlb.writeMisses            0                       # DTB write misses
system.cpu.itb.stage2_mmu.stage2_tlb.inserts            0                       # Number of times an entry is inserted into the TLB
system.cpu.itb.stage2_mmu.stage2_tlb.flushTlb            0                       # Number of times complete TLB was flushed
system.cpu.itb.stage2_mmu.stage2_tlb.flushTlbMva            0                       # Number of times TLB was flushed by MVA
system.cpu.itb.stage2_mmu.stage2_tlb.flushTlbMvaAsid            0                       # Number of times TLB was flushed by MVA & ASID
system.cpu.itb.stage2_mmu.stage2_tlb.flushTlbAsid            0                       # Number of times TLB was flushed by ASID
system.cpu.itb.stage2_mmu.stage2_tlb.flushedEntries            0                       # Number of entries that have been flushed from TLB
system.cpu.itb.stage2_mmu.stage2_tlb.alignFaults            0                       # Number of TLB faults due to alignment restrictions
system.cpu.itb.stage2_mmu.stage2_tlb.prefetchFaults            0                       # Number of TLB faults due to prefetch
system.cpu.itb.stage2_mmu.stage2_tlb.domainFaults            0                       # Number of TLB faults due to domain restrictions
system.cpu.itb.stage2_mmu.stage2_tlb.permsFaults            0                       # Number of TLB faults due to permissions restrictions
system.cpu.itb.stage2_mmu.stage2_tlb.readAccesses            0                       # DTB read accesses
system.cpu.itb.stage2_mmu.stage2_tlb.writeAccesses            0                       # DTB write accesses
system.cpu.itb.stage2_mmu.stage2_tlb.instAccesses            0                       # ITB inst accesses
system.cpu.itb.stage2_mmu.stage2_tlb.hits            0                       # Total TLB (inst and data) hits
system.cpu.itb.stage2_mmu.stage2_tlb.misses            0                       # Total TLB (inst and data) misses
system.cpu.itb.stage2_mmu.stage2_tlb.accesses            0                       # Total TLB (inst and data) accesses
system.cpu.itb.stage2_mmu.stage2_tlb.walker.walks            0                       # Table walker walks requested
system.cpu.itb.stage2_mmu.stage2_tlb.walker.requestOrigin_Requested::Data            0                       # Table walker requests started/completed, data/inst
system.cpu.itb.stage2_mmu.stage2_tlb.walker.requestOrigin_Requested::Inst            0                       # Table walker requests started/completed, data/inst
system.cpu.itb.stage2_mmu.stage2_tlb.walker.requestOrigin_Requested::total            0                       # Table walker requests started/completed, data/inst
system.cpu.itb.stage2_mmu.stage2_tlb.walker.requestOrigin_Completed::Data            0                       # Table walker requests started/completed, data/inst
system.cpu.itb.stage2_mmu.stage2_tlb.walker.requestOrigin_Completed::Inst            0                       # Table walker requests started/completed, data/inst
system.cpu.itb.stage2_mmu.stage2_tlb.walker.requestOrigin_Completed::total            0                       # Table walker requests started/completed, data/inst
system.cpu.itb.stage2_mmu.stage2_tlb.walker.requestOrigin::total            0                       # Table walker requests started/completed, data/inst
system.cpu.itb.stage2_mmu.stage2_tlb.walker.power_state.pwrStateResidencyTicks::UNDEFINED 371468424000                       # Cumulative time (in ticks) in various power states
system.cpu.itb.walker.walks                         0                       # Table walker walks requested
system.cpu.itb.walker.requestOrigin_Requested::Data            0                       # Table walker requests started/completed, data/inst
system.cpu.itb.walker.requestOrigin_Requested::Inst            0                       # Table walker requests started/completed, data/inst
system.cpu.itb.walker.requestOrigin_Requested::total            0                       # Table walker requests started/completed, data/inst
system.cpu.itb.walker.requestOrigin_Completed::Data            0                       # Table walker requests started/completed, data/inst
system.cpu.itb.walker.requestOrigin_Completed::Inst            0                       # Table walker requests started/completed, data/inst
system.cpu.itb.walker.requestOrigin_Completed::total            0                       # Table walker requests started/completed, data/inst
system.cpu.itb.walker.requestOrigin::total            0                       # Table walker requests started/completed, data/inst
system.cpu.itb.walker.power_state.pwrStateResidencyTicks::UNDEFINED 371468424000                       # Cumulative time (in ticks) in various power states
system.cpu.power_state.pwrStateResidencyTicks::ON 371468424000                       # Cumulative time (in ticks) in various power states
system.cpu.thread_0.numInsts                100000001                       # Number of Instructions committed
system.cpu.thread_0.numOps                  184218784                       # Number of Ops committed
system.cpu.thread_0.numMemRefs                      0                       # Number of Memory References
system.cpu_clk_domain.clock                      1000                       # Clock period in ticks
system.cpu_voltage_domain.voltage                   1                       # Voltage in Volts
system.l2.demand_hits::.cpu.inst                    8                       # number of demand (read+write) hits
system.l2.demand_hits::.cpu.data                   41                       # number of demand (read+write) hits
system.l2.demand_hits::total                       49                       # number of demand (read+write) hits
system.l2.overall_hits::.cpu.inst                   8                       # number of overall hits
system.l2.overall_hits::.cpu.data                  41                       # number of overall hits
system.l2.overall_hits::total                      49                       # number of overall hits
system.l2.demand_misses::.cpu.inst                264                       # number of demand (read+write) misses
system.l2.demand_misses::.cpu.data            1316034                       # number of demand (read+write) misses
system.l2.demand_misses::total                1316298                       # number of demand (read+write) misses
system.l2.overall_misses::.cpu.inst               264                       # number of overall misses
system.l2.overall_misses::.cpu.data           1316034                       # number of overall misses
system.l2.overall_misses::total               1316298                       # number of overall misses
system.l2.demand_miss_latency::.cpu.inst     32119000                       # number of demand (read+write) miss cycles
system.l2.demand_miss_latency::.cpu.data 164066909000                       # number of demand (read+write) miss cycles
system.l2.demand_miss_latency::total     164099028000                       # number of demand (read+write) miss cycles
system.l2.overall_miss_latency::.cpu.inst     32119000                       # number of overall miss cycles
system.l2.overall_miss_latency::.cpu.data 164066909000                       # number of overall miss cycles
system.l2.overall_miss_latency::total    164099028000                       # number of overall miss cycles
system.l2.demand_accesses::.cpu.inst              272                       # number of demand (read+write) accesses
system.l2.demand_accesses::.cpu.data          1316075                       # number of demand (read+write) accesses
system.l2.demand_accesses::total              1316347                       # number of demand (read+write) accesses
system.l2.overall_accesses::.cpu.inst             272                       # number of overall (read+write) accesses
system.l2.overall_accesses::.cpu.data         1316075                       # number of overall (read+write) accesses
system.l2.overall_accesses::total             1316347                       # number of overall (read+write) accesses
system.l2.demand_miss_rate::.cpu.inst        0.970588                       # miss rate for demand accesses
system.l2.demand_miss_rate::.cpu.data        0.999969                       # miss rate for demand accesses
system.l2.demand_miss_rate::total            0.999963                       # miss rate for demand accesses
system.l2.overall_miss_rate::.cpu.inst       0.970588                       # miss rate for overall accesses
system.l2.overall_miss_rate::.cpu.data       0.999969                       # miss rate for overall accesses
system.l2.overall_miss_rate::total           0.999963                       # miss rate for overall accesses
system.l2.demand_avg_miss_latency::.cpu.inst 121662.878788                       # average overall miss latency
system.l2.demand_avg_miss_latency::.cpu.data 124667.682598                       # average overall miss latency
system.l2.demand_avg_miss_latency::total 124667.079947                       # average overall miss latency
system.l2.overall_avg_miss_latency::.cpu.inst 121662.878788                       # average overall miss latency
system.l2.overall_avg_miss_latency::.cpu.data 124667.682598                       # average overall miss latency
system.l2.overall_avg_miss_latency::total 124667.079947                       # average overall miss latency
system.l2.blocked_cycles::no_mshrs                  0                       # number of cycles access was blocked
system.l2.blocked_cycles::no_targets                0                       # number of cycles access was blocked
system.l2.blocked::no_mshrs                         0                       # number of cycles access was blocked
system.l2.blocked::no_targets                       0                       # number of cycles access was blocked
system.l2.avg_blocked_cycles::no_mshrs            nan                       # average number of cycles each access was blocked
system.l2.avg_blocked_cycles::no_targets          nan                       # average number of cycles each access was blocked
system.l2.writebacks::.writebacks             1299512                       # number of writebacks
system.l2.writebacks::total                   1299512                       # number of writebacks
system.l2.demand_mshr_hits::.cpu.inst               1                       # number of demand (read+write) MSHR hits
system.l2.demand_mshr_hits::.cpu.data               7                       # number of demand (read+write) MSHR hits
system.l2.demand_mshr_hits::total                   8                       # number of demand (read+write) MSHR hits
system.l2.overall_mshr_hits::.cpu.inst              1                       # number of overall MSHR hits
system.l2.overall_mshr_hits::.cpu.data              7                       # number of overall MSHR hits
system.l2.overall_mshr_hits::total                  8                       # number of overall MSHR hits
system.l2.demand_mshr_misses::.cpu.inst           263                       # number of demand (read+write) MSHR misses
system.l2.demand_mshr_misses::.cpu.data       1316027                       # number of demand (read+write) MSHR misses
system.l2.demand_mshr_misses::total           1316290                       # number of demand (read+write) MSHR misses
system.l2.overall_mshr_misses::.cpu.inst          263                       # number of overall MSHR misses
system.l2.overall_mshr_misses::.cpu.data      1316027                       # number of overall MSHR misses
system.l2.overall_mshr_misses::total          1316290                       # number of overall MSHR misses
system.l2.demand_mshr_miss_latency::.cpu.inst     26755000                       # number of demand (read+write) MSHR miss cycles
system.l2.demand_mshr_miss_latency::.cpu.data 137745604000                       # number of demand (read+write) MSHR miss cycles
system.l2.demand_mshr_miss_latency::total 137772359000                       # number of demand (read+write) MSHR miss cycles
system.l2.overall_mshr_miss_latency::.cpu.inst     26755000                       # number of overall MSHR miss cycles
system.l2.overall_mshr_miss_latency::.cpu.data 137745604000                       # number of overall MSHR miss cycles
system.l2.overall_mshr_miss_latency::total 137772359000                       # number of overall MSHR miss cycles
system.l2.demand_mshr_miss_rate::.cpu.inst     0.966912                       # mshr miss rate for demand accesses
system.l2.demand_mshr_miss_rate::.cpu.data     0.999964                       # mshr miss rate for demand accesses
system.l2.demand_mshr_miss_rate::total       0.999957                       # mshr miss rate for demand accesses
system.l2.overall_mshr_miss_rate::.cpu.inst     0.966912                       # mshr miss rate for overall accesses
system.l2.overall_mshr_miss_rate::.cpu.data     0.999964                       # mshr miss rate for overall accesses
system.l2.overall_mshr_miss_rate::total      0.999957                       # mshr miss rate for overall accesses
system.l2.demand_avg_mshr_miss_latency::.cpu.inst 101730.038023                       # average overall mshr miss latency
system.l2.demand_avg_mshr_miss_latency::.cpu.data 104667.764415                       # average overall mshr miss latency
system.l2.demand_avg_mshr_miss_latency::total 104667.177446                       # average overall mshr miss latency
system.l2.overall_avg_mshr_miss_latency::.cpu.inst 101730.038023                       # average overall mshr miss latency
system.l2.overall_avg_mshr_miss_latency::.cpu.data 104667.764415                       # average overall mshr miss latency
system.l2.overall_avg_mshr_miss_latency::total 104667.177446                       # average overall mshr miss latency
system.l2.replacements                        1299906                       # number of replacements
system.l2.WritebackDirty_hits::.writebacks      1315399                       # number of WritebackDirty hits
system.l2.WritebackDirty_hits::total          1315399                       # number of WritebackDirty hits
system.l2.WritebackDirty_accesses::.writebacks      1315399                       # number of WritebackDirty accesses(hits+misses)
system.l2.WritebackDirty_accesses::total      1315399                       # number of WritebackDirty accesses(hits+misses)
system.l2.ReadExReq_hits::.cpu.data                 5                       # number of ReadExReq hits
system.l2.ReadExReq_hits::total                     5                       # number of ReadExReq hits
system.l2.ReadExReq_misses::.cpu.data         1315878                       # number of ReadExReq misses
system.l2.ReadExReq_misses::total             1315878                       # number of ReadExReq misses
system.l2.ReadExReq_miss_latency::.cpu.data 164046605000                       # number of ReadExReq miss cycles
system.l2.ReadExReq_miss_latency::total  164046605000                       # number of ReadExReq miss cycles
system.l2.ReadExReq_accesses::.cpu.data       1315883                       # number of ReadExReq accesses(hits+misses)
system.l2.ReadExReq_accesses::total           1315883                       # number of ReadExReq accesses(hits+misses)
system.l2.ReadExReq_miss_rate::.cpu.data     0.999996                       # miss rate for ReadExReq accesses
system.l2.ReadExReq_miss_rate::total         0.999996                       # miss rate for ReadExReq accesses
system.l2.ReadExReq_avg_miss_latency::.cpu.data 124667.032202                       # average ReadExReq miss latency
system.l2.ReadExReq_avg_miss_latency::total 124667.032202                       # average ReadExReq miss latency
system.l2.ReadExReq_mshr_misses::.cpu.data      1315878                       # number of ReadExReq MSHR misses
system.l2.ReadExReq_mshr_misses::total        1315878                       # number of ReadExReq MSHR misses
system.l2.ReadExReq_mshr_miss_latency::.cpu.data 137729045000                       # number of ReadExReq MSHR miss cycles
system.l2.ReadExReq_mshr_miss_latency::total 137729045000                       # number of ReadExReq MSHR miss cycles
system.l2.ReadExReq_mshr_miss_rate::.cpu.data     0.999996                       # mshr miss rate for ReadExReq accesses
system.l2.ReadExReq_mshr_miss_rate::total     0.999996                       # mshr miss rate for ReadExReq accesses
system.l2.ReadExReq_avg_mshr_miss_latency::.cpu.data 104667.032202                       # average ReadExReq mshr miss latency
system.l2.ReadExReq_avg_mshr_miss_latency::total 104667.032202                       # average ReadExReq mshr miss latency
system.l2.ReadCleanReq_hits::.cpu.inst              8                       # number of ReadCleanReq hits
system.l2.ReadCleanReq_hits::total                  8                       # number of ReadCleanReq hits
system.l2.ReadCleanReq_misses::.cpu.inst          264                       # number of ReadCleanReq misses
system.l2.ReadCleanReq_misses::total              264                       # number of ReadCleanReq misses
system.l2.ReadCleanReq_miss_latency::.cpu.inst     32119000                       # number of ReadCleanReq miss cycles
system.l2.ReadCleanReq_miss_latency::total     32119000                       # number of ReadCleanReq miss cycles
system.l2.ReadCleanReq_accesses::.cpu.inst          272                       # number of ReadCleanReq accesses(hits+misses)
system.l2.ReadCleanReq_accesses::total            272                       # number of ReadCleanReq accesses(hits+misses)
system.l2.ReadCleanReq_miss_rate::.cpu.inst     0.970588                       # miss rate for ReadCleanReq accesses
system.l2.ReadCleanReq_miss_rate::total      0.970588                       # miss rate for ReadCleanReq accesses
system.l2.ReadCleanReq_avg_miss_latency::.cpu.inst 121662.878788                       # average ReadCleanReq miss latency
system.l2.ReadCleanReq_avg_miss_latency::total 121662.878788                       # average ReadCleanReq miss latency
system.l2.ReadCleanReq_mshr_hits::.cpu.inst            1                       # number of ReadCleanReq MSHR hits
system.l2.ReadCleanReq_mshr_hits::total             1                       # number of ReadCleanReq MSHR hits
system.l2.ReadCleanReq_mshr_misses::.cpu.inst          263                       # number of ReadCleanReq MSHR misses
system.l2.ReadCleanReq_mshr_misses::total          263                       # number of ReadCleanReq MSHR misses
system.l2.ReadCleanReq_mshr_miss_latency::.cpu.inst     26755000                       # number of ReadCleanReq MSHR miss cycles
system.l2.ReadCleanReq_mshr_miss_latency::total     26755000                       # number of ReadCleanReq MSHR miss cycles
system.l2.ReadCleanReq_mshr_miss_rate::.cpu.inst     0.966912                       # mshr miss rate for ReadCleanReq accesses
system.l2.ReadCleanReq_mshr_miss_rate::total     0.966912                       # mshr miss rate for ReadCleanReq accesses
system.l2.ReadCleanReq_avg_mshr_miss_latency::.cpu.inst 101730.038023                       # average ReadCleanReq mshr miss latency
system.l2.ReadCleanReq_avg_mshr_miss_latency::total 101730.038023                       # average ReadCleanReq mshr miss latency
system.l2.ReadSharedReq_hits::.cpu.data            36                       # number of ReadSharedReq hits
system.l2.ReadSharedReq_hits::total                36                       # number of ReadSharedReq hits
system.l2.ReadSharedReq_misses::.cpu.data          156                       # number of ReadSharedReq misses
system.l2.ReadSharedReq_misses::total             156                       # number of ReadSharedReq misses
system.l2.ReadSharedReq_miss_latency::.cpu.data     20304000                       # number of ReadSharedReq miss cycles
system.l2.ReadSharedReq_miss_latency::total     20304000                       # number of ReadSharedReq miss cycles
system.l2.ReadSharedReq_accesses::.cpu.data          192                       # number of ReadSharedReq accesses(hits+misses)
system.l2.ReadSharedReq_accesses::total           192                       # number of ReadSharedReq accesses(hits+misses)
system.l2.ReadSharedReq_miss_rate::.cpu.data     0.812500                       # miss rate for ReadSharedReq accesses
system.l2.ReadSharedReq_miss_rate::total     0.812500                       # miss rate for ReadSharedReq accesses
system.l2.ReadSharedReq_avg_miss_latency::.cpu.data 130153.846154                       # average ReadSharedReq miss latency
system.l2.ReadSharedReq_avg_miss_latency::total 130153.846154                       # average ReadSharedReq miss latency
system.l2.ReadSharedReq_mshr_hits::.cpu.data            7                       # number of ReadSharedReq MSHR hits
system.l2.ReadSharedReq_mshr_hits::total            7                       # number of ReadSharedReq MSHR hits
system.l2.ReadSharedReq_mshr_misses::.cpu.data          149                       # number of ReadSharedReq MSHR misses
system.l2.ReadSharedReq_mshr_misses::total          149                       # number of ReadSharedReq MSHR misses
system.l2.ReadSharedReq_mshr_miss_latency::.cpu.data     16559000                       # number of ReadSharedReq MSHR miss cycles
system.l2.ReadSharedReq_mshr_miss_latency::total     16559000                       # number of ReadSharedReq MSHR miss cycles
system.l2.ReadSharedReq_mshr_miss_rate::.cpu.data     0.776042                       # mshr miss rate for ReadSharedReq accesses
system.l2.ReadSharedReq_mshr_miss_rate::total     0.776042                       # mshr miss rate for ReadSharedReq accesses
system.l2.ReadSharedReq_avg_mshr_miss_latency::.cpu.data 111134.228188                       # average ReadSharedReq mshr miss latency
system.l2.ReadSharedReq_avg_mshr_miss_latency::total 111134.228188                       # average ReadSharedReq mshr miss latency
system.l2.power_state.pwrStateResidencyTicks::UNDEFINED 371468424000                       # Cumulative time (in ticks) in various power states
system.l2.tags.tagsinuse                 16044.720587                       # Cycle average of tags in use
system.l2.tags.total_refs                     2631846                       # Total number of references to valid blocks.
system.l2.tags.sampled_refs                   1316290                       # Sample count of references to valid blocks.
system.l2.tags.avg_refs                      1.999442                       # Average number of references to valid blocks.
system.l2.tags.warmup_cycle                    102000                       # Cycle when the warmup percentage was hit.
system.l2.tags.occ_blocks::.cpu.inst         3.655603                       # Average occupied blocks per requestor
system.l2.tags.occ_blocks::.cpu.data     16041.064984                       # Average occupied blocks per requestor
system.l2.tags.occ_percent::.cpu.inst        0.000223                       # Average percentage of cache occupancy
system.l2.tags.occ_percent::.cpu.data        0.979069                       # Average percentage of cache occupancy
system.l2.tags.occ_percent::total            0.979292                       # Average percentage of cache occupancy
system.l2.tags.occ_task_id_blocks::1024         16384                       # Occupied blocks per task id
system.l2.tags.age_task_id_blocks_1024::0           36                       # Occupied blocks per task id
system.l2.tags.age_task_id_blocks_1024::1          324                       # Occupied blocks per task id
system.l2.tags.age_task_id_blocks_1024::2         3236                       # Occupied blocks per task id
system.l2.tags.age_task_id_blocks_1024::3        12788                       # Occupied blocks per task id
system.l2.tags.occ_task_id_percent::1024            1                       # Percentage of cache occupancy per task id
system.l2.tags.tag_accesses                   3948144                       # Number of tag accesses
system.l2.tags.data_accesses                  3948144                       # Number of data accesses
system.l2.tags.power_state.pwrStateResidencyTicks::UNDEFINED 371468424000                       # Cumulative time (in ticks) in various power states
system.mem_ctrls.avgPriority_.writebacks::samples   5198048.00                       # Average QoS priority value for accepted requests
system.mem_ctrls.avgPriority_.cpu.inst::samples      1052.00                       # Average QoS priority value for accepted requests
system.mem_ctrls.avgPriority_.cpu.data::samples   5264108.00                       # Average QoS priority value for accepted requests
system.mem_ctrls.priorityMinLatency      0.000000018750                       # per QoS priority minimum request to response latency (s)
system.mem_ctrls.priorityMaxLatency      0.004550204250                       # per QoS priority maximum request to response latency (s)
system.mem_ctrls.numReadWriteTurnArounds       261421                       # Number of turnarounds from READ to WRITE
system.mem_ctrls.numWriteReadTurnArounds       261422                       # Number of turnarounds from WRITE to READ
system.mem_ctrls.numStayReadState             7951958                       # Number of times bus staying in READ state
system.mem_ctrls.numStayWriteState            4959922                       # Number of times bus staying in WRITE state
system.mem_ctrls.readReqs                     1316290                       # Number of read requests accepted
system.mem_ctrls.writeReqs                    1299512                       # Number of write requests accepted
system.mem_ctrls.readBursts                   5265160                       # Number of controller read bursts, including those serviced by the write queue
system.mem_ctrls.writeBursts                  5198048                       # Number of controller write bursts, including those merged in the write queue
system.mem_ctrls.servicedByWrQ                      0                       # Number of controller read bursts serviced by the write queue
system.mem_ctrls.mergedWrBursts                     0                       # Number of controller write bursts merged with an existing one
system.mem_ctrls.neitherReadNorWriteReqs            0                       # Number of requests that are neither read nor write
system.mem_ctrls.avgRdQLen                       4.01                       # Average read queue length when enqueuing
system.mem_ctrls.avgWrQLen                      26.78                       # Average write queue length when enqueuing
system.mem_ctrls.numRdRetry                         0                       # Number of times read queue was full causing retry
system.mem_ctrls.numWrRetry                         0                       # Number of times write queue was full causing retry
system.mem_ctrls.readPktSize::0                     0                       # Read request sizes (log2)
system.mem_ctrls.readPktSize::1                     0                       # Read request sizes (log2)
system.mem_ctrls.readPktSize::2                     0                       # Read request sizes (log2)
system.mem_ctrls.readPktSize::3                     0                       # Read request sizes (log2)
system.mem_ctrls.readPktSize::4                     0                       # Read request sizes (log2)
system.mem_ctrls.readPktSize::5                     0                       # Read request sizes (log2)
system.mem_ctrls.readPktSize::6               5265160                       # Read request sizes (log2)
system.mem_ctrls.readPktSize::7                     0                       # Read request sizes (log2)
system.mem_ctrls.readPktSize::8                     0                       # Read request sizes (log2)
system.mem_ctrls.writePktSize::0                    0                       # Write request sizes (log2)
system.mem_ctrls.writePktSize::1                    0                       # Write request sizes (log2)
system.mem_ctrls.writePktSize::2                    0                       # Write request sizes (log2)
system.mem_ctrls.writePktSize::3                    0                       # Write request sizes (log2)
system.mem_ctrls.writePktSize::4                    0                       # Write request sizes (log2)
system.mem_ctrls.writePktSize::5                    0                       # Write request sizes (log2)
system.mem_ctrls.writePktSize::6              5198048                       # Write request sizes (log2)
system.mem_ctrls.writePktSize::7                    0                       # Write request sizes (log2)
system.mem_ctrls.writePktSize::8                    0                       # Write request sizes (log2)
system.mem_ctrls.rdQLenPdf::0                 1316052                       # What read queue length does an incoming req see
system.mem_ctrls.rdQLenPdf::1                 1316053                       # What read queue length does an incoming req see
system.mem_ctrls.rdQLenPdf::2                 1316151                       # What read queue length does an incoming req see
system.mem_ctrls.rdQLenPdf::3                 1316156                       # What read queue length does an incoming req see
system.mem_ctrls.rdQLenPdf::4                     234                       # What read queue length does an incoming req see
system.mem_ctrls.rdQLenPdf::5                     233                       # What read queue length does an incoming req see
system.mem_ctrls.rdQLenPdf::6                     135                       # What read queue length does an incoming req see
system.mem_ctrls.rdQLenPdf::7                     130                       # What read queue length does an incoming req see
system.mem_ctrls.rdQLenPdf::8                       4                       # What read queue length does an incoming req see
system.mem_ctrls.rdQLenPdf::9                       4                       # What read queue length does an incoming req see
system.mem_ctrls.rdQLenPdf::10                      4                       # What read queue length does an incoming req see
system.mem_ctrls.rdQLenPdf::11                      4                       # What read queue length does an incoming req see
system.mem_ctrls.rdQLenPdf::12                      0                       # What read queue length does an incoming req see
system.mem_ctrls.rdQLenPdf::13                      0                       # What read queue length does an incoming req see
[...]
system.mem_ctrls.dram.bw_inst_read::total       181248                       # Instruction read bandwidth from this memory (bytes/s)
system.mem_ctrls.dram.bw_write::.writebacks    895567565                       # Write bandwidth from this memory (bytes/s)
system.mem_ctrls.dram.bw_write::total       895567565                       # Write bandwidth from this memory (bytes/s)
system.mem_ctrls.dram.bw_total::.writebacks    895567565                       # Total bandwidth to/from this memory (bytes/s)
system.mem_ctrls.dram.bw_total::.cpu.inst       181248                       # Total bandwidth to/from this memory (bytes/s)
system.mem_ctrls.dram.bw_total::.cpu.data    906948990                       # Total bandwidth to/from this memory (bytes/s)
system.mem_ctrls.dram.bw_total::total      1802697803                       # Total bandwidth to/from this memory (bytes/s)
system.mem_ctrls.dram.readBursts              5265160                       # Number of DRAM read bursts
system.mem_ctrls.dram.writeBursts             5198015                       # Number of DRAM write bursts
system.mem_ctrls.dram.perBankRdBursts::0       329000                       # Per bank write bursts
system.mem_ctrls.dram.perBankRdBursts::1       329212                       # Per bank write bursts
system.mem_ctrls.dram.perBankRdBursts::2       329192                       # Per bank write bursts
system.mem_ctrls.dram.perBankRdBursts::3       329144                       # Per bank write bursts
system.mem_ctrls.dram.perBankRdBursts::4       329064                       # Per bank write bursts
system.mem_ctrls.dram.perBankRdBursts::5       329144                       # Per bank write bursts
system.mem_ctrls.dram.perBankRdBursts::6       329156                       # Per bank write bursts
system.mem_ctrls.dram.perBankRdBursts::7       329084                       # Per bank write bursts
system.mem_ctrls.dram.perBankRdBursts::8       328928                       # Per bank write bursts
system.mem_ctrls.dram.perBankRdBursts::9       328916                       # Per bank write bursts
system.mem_ctrls.dram.perBankRdBursts::10       328952                       # Per bank write bursts
system.mem_ctrls.dram.perBankRdBursts::11       328976                       # Per bank write bursts
system.mem_ctrls.dram.perBankRdBursts::12       329152                       # Per bank write bursts
system.mem_ctrls.dram.perBankRdBursts::13       329120                       # Per bank write bursts
system.mem_ctrls.dram.perBankRdBursts::14       329108                       # Per bank write bursts
system.mem_ctrls.dram.perBankRdBursts::15       329012                       # Per bank write bursts
system.mem_ctrls.dram.perBankWrBursts::0       324776                       # Per bank write bursts
system.mem_ctrls.dram.perBankWrBursts::1       324956                       # Per bank write bursts
system.mem_ctrls.dram.perBankWrBursts::2       324955                       # Per bank write bursts
system.mem_ctrls.dram.perBankWrBursts::3       325008                       # Per bank write bursts
system.mem_ctrls.dram.perBankWrBursts::4       324916                       # Per bank write bursts
system.mem_ctrls.dram.perBankWrBursts::5       324972                       # Per bank write bursts
system.mem_ctrls.dram.perBankWrBursts::6       324968                       # Per bank write bursts
system.mem_ctrls.dram.perBankWrBursts::7       324948                       # Per bank write bursts
system.mem_ctrls.dram.perBankWrBursts::8       324740                       # Per bank write bursts
system.mem_ctrls.dram.perBankWrBursts::9       324736                       # Per bank write bursts
system.mem_ctrls.dram.perBankWrBursts::10       324736                       # Per bank write bursts
system.mem_ctrls.dram.perBankWrBursts::11       324812                       # Per bank write bursts
system.mem_ctrls.dram.perBankWrBursts::12       324900                       # Per bank write bursts
system.mem_ctrls.dram.perBankWrBursts::13       324892                       # Per bank write bursts
system.mem_ctrls.dram.perBankWrBursts::14       324844                       # Per bank write bursts
system.mem_ctrls.dram.perBankWrBursts::15       324856                       # Per bank write bursts
system.mem_ctrls.dram.totQLat            142673210000                       # Total ticks spent queuing
system.mem_ctrls.dram.totBusLat           26325800000                       # Total ticks spent in databus transfers
system.mem_ctrls.dram.totMemAccLat       241394960000                       # Total ticks spent from burst creation until serviced by the DRAM
system.mem_ctrls.dram.avgQLat                27097.60                       # Average queueing delay per DRAM burst
system.mem_ctrls.dram.avgBusLat               5000.00                       # Average bus latency per DRAM burst
system.mem_ctrls.dram.avgMemAccLat           45847.60                       # Average memory access latency per DRAM burst
system.mem_ctrls.dram.readRowHits             4739076                       # Number of row buffer hits during reads
system.mem_ctrls.dram.writeRowHits            4668005                       # Number of row buffer hits during writes
system.mem_ctrls.dram.readRowHitRate            90.01                       # Row buffer hit rate for reads
system.mem_ctrls.dram.writeRowHitRate           89.80                       # Row buffer hit rate for writes
system.mem_ctrls.dram.bytesPerActivate::samples      1056093                       # Bytes accessed per row activation
system.mem_ctrls.dram.bytesPerActivate::mean   634.075855                       # Bytes accessed per row activation
system.mem_ctrls.dram.bytesPerActivate::gmean   501.905460                       # Bytes accessed per row activation
system.mem_ctrls.dram.bytesPerActivate::stdev   372.998762                       # Bytes accessed per row activation
system.mem_ctrls.dram.bytesPerActivate::0-127        27651      2.62%      2.62% # Bytes accessed per row activation
system.mem_ctrls.dram.bytesPerActivate::128-255        20790      1.97%      4.59% # Bytes accessed per row activation
system.mem_ctrls.dram.bytesPerActivate::256-383       420552     39.82%     44.41% # Bytes accessed per row activation
system.mem_ctrls.dram.bytesPerActivate::384-511         7562      0.72%     45.12% # Bytes accessed per row activation
system.mem_ctrls.dram.bytesPerActivate::512-639        55903      5.29%     50.42% # Bytes accessed per row activation
system.mem_ctrls.dram.bytesPerActivate::640-767         8833      0.84%     51.25% # Bytes accessed per row activation
system.mem_ctrls.dram.bytesPerActivate::768-895        37873      3.59%     54.84% # Bytes accessed per row activation
system.mem_ctrls.dram.bytesPerActivate::896-1023        11212      1.06%     55.90% # Bytes accessed per row activation
system.mem_ctrls.dram.bytesPerActivate::1024-1151       465717     44.10%    100.00% # Bytes accessed per row activation
system.mem_ctrls.dram.bytesPerActivate::total      1056093                       # Bytes accessed per row activation
system.mem_ctrls.dram.bytesRead             336970240                       # Total number of bytes read from DRAM
system.mem_ctrls.dram.bytesWritten          332672960                       # Total number of bytes written to DRAM
system.mem_ctrls.dram.avgRdBW              907.130238                       # Average DRAM read bandwidth in MiBytes/s
system.mem_ctrls.dram.avgWrBW              895.561880                       # Average DRAM write bandwidth in MiBytes/s
system.mem_ctrls.dram.peakBW                 12800.00                       # Theoretical peak bandwidth in MiByte/s
system.mem_ctrls.dram.busUtil                   14.08                       # Data bus utilization in percentage
system.mem_ctrls.dram.busUtilRead                7.09                       # Data bus utilization in percentage for reads
system.mem_ctrls.dram.busUtilWrite               7.00                       # Data bus utilization in percentage for writes
system.mem_ctrls.dram.pageHitRate               89.91                       # Row buffer hit rate, read and write combined
system.mem_ctrls.dram.power_state.pwrStateResidencyTicks::UNDEFINED 371468424000                       # Cumulative time (in ticks) in various power states
system.mem_ctrls.dram.rank0.actEnergy      3770776800                       # Energy for activate commands per rank (pJ)
system.mem_ctrls.dram.rank0.preEnergy      2004215400                       # Energy for precharge commands per rank (pJ)
system.mem_ctrls.dram.rank0.readEnergy    18799591440                       # Energy for read commands per rank (pJ)
system.mem_ctrls.dram.rank0.writeEnergy   13569374340                       # Energy for write commands per rank (pJ)
system.mem_ctrls.dram.rank0.refreshEnergy 29323245120.000004                       # Energy for refresh commands per rank (pJ)
system.mem_ctrls.dram.rank0.actBackEnergy  84845009010                       # Energy for active background per rank (pJ)
system.mem_ctrls.dram.rank0.preBackEnergy  71195446560                       # Energy for precharge background per rank (pJ)
system.mem_ctrls.dram.rank0.actPowerDownEnergy            0                       # Energy for active power-down per rank (pJ)
system.mem_ctrls.dram.rank0.prePowerDownEnergy            0                       # Energy for precharge power-down per rank (pJ)
system.mem_ctrls.dram.rank0.selfRefreshEnergy            0                       # Energy for self refresh per rank (pJ)
system.mem_ctrls.dram.rank0.totalEnergy  223507658670                       # Total energy per rank (pJ)
system.mem_ctrls.dram.rank0.averagePower   601.686831                       # Core power per rank (mW)
system.mem_ctrls.dram.rank0.totalIdleTime            0                       # Total Idle time Per DRAM Rank
system.mem_ctrls.dram.rank0.pwrStateTime::IDLE 181330860750                       # Time in different power states
system.mem_ctrls.dram.rank0.pwrStateTime::REF  12404080000                       # Time in different power states
system.mem_ctrls.dram.rank0.pwrStateTime::SREF            0                       # Time in different power states
system.mem_ctrls.dram.rank0.pwrStateTime::PRE_PDN            0                       # Time in different power states
system.mem_ctrls.dram.rank0.pwrStateTime::ACT 177733483250                       # Time in different power states
system.mem_ctrls.dram.rank0.pwrStateTime::ACT_PDN            0                       # Time in different power states
system.mem_ctrls.dram.rank1.actEnergy      3769727220                       # Energy for activate commands per rank (pJ)
system.mem_ctrls.dram.rank1.preEnergy      2003657535                       # Energy for precharge commands per rank (pJ)
system.mem_ctrls.dram.rank1.readEnergy    18793650960                       # Energy for read commands per rank (pJ)
system.mem_ctrls.dram.rank1.writeEnergy   13564253520                       # Energy for write commands per rank (pJ)
system.mem_ctrls.dram.rank1.refreshEnergy 29323245120.000004                       # Energy for refresh commands per rank (pJ)
system.mem_ctrls.dram.rank1.actBackEnergy  84842815650                       # Energy for active background per rank (pJ)
system.mem_ctrls.dram.rank1.preBackEnergy  71197293600                       # Energy for precharge background per rank (pJ)
system.mem_ctrls.dram.rank1.actPowerDownEnergy            0                       # Energy for active power-down per rank (pJ)
system.mem_ctrls.dram.rank1.prePowerDownEnergy            0                       # Energy for precharge power-down per rank (pJ)
system.mem_ctrls.dram.rank1.selfRefreshEnergy            0                       # Energy for self refresh per rank (pJ)
system.mem_ctrls.dram.rank1.totalEnergy  223494643605                       # Total energy per rank (pJ)
system.mem_ctrls.dram.rank1.averagePower   601.651794                       # Core power per rank (mW)
system.mem_ctrls.dram.rank1.totalIdleTime            0                       # Total Idle time Per DRAM Rank
system.mem_ctrls.dram.rank1.pwrStateTime::IDLE 181337591750                       # Time in different power states
system.mem_ctrls.dram.rank1.pwrStateTime::REF  12404080000                       # Time in different power states
system.mem_ctrls.dram.rank1.pwrStateTime::SREF            0                       # Time in different power states
system.mem_ctrls.dram.rank1.pwrStateTime::PRE_PDN            0                       # Time in different power states
system.mem_ctrls.dram.rank1.pwrStateTime::ACT 177726752250                       # Time in different power states
system.mem_ctrls.dram.rank1.pwrStateTime::ACT_PDN            0                       # Time in different power states
system.mem_ctrls.power_state.pwrStateResidencyTicks::UNDEFINED 371468424000                       # Cumulative time (in ticks) in various power states
system.membus.trans_dist::ReadResp                412                       # Transaction distribution
system.membus.trans_dist::WritebackDirty      1299512                       # Transaction distribution
system.membus.trans_dist::CleanEvict              106                       # Transaction distribution
system.membus.trans_dist::ReadExReq           1315878                       # Transaction distribution
system.membus.trans_dist::ReadExResp          1315878                       # Transaction distribution
system.membus.trans_dist::ReadSharedReq           412                       # Transaction distribution
system.membus.pkt_count_system.l2.mem_side_port::system.mem_ctrls.port      3932198                       # Packet count per connected requestor and responder (bytes)
system.membus.pkt_count::total                3932198                       # Packet count per connected requestor and responder (bytes)
system.membus.pkt_size_system.l2.mem_side_port::system.mem_ctrls.port    669645312                       # Cumulative packet size per connected requestor and responder (bytes)
system.membus.pkt_size::total               669645312                       # Cumulative packet size per connected requestor and responder (bytes)
system.membus.snoops                                0                       # Total snoops (count)
system.membus.snoopTraffic                          0                       # Total snoop traffic (bytes)
system.membus.snoop_fanout::samples           1316290                       # Request fanout histogram
system.membus.snoop_fanout::mean                    0                       # Request fanout histogram
system.membus.snoop_fanout::stdev                   0                       # Request fanout histogram
system.membus.snoop_fanout::underflows              0      0.00%      0.00% # Request fanout histogram
system.membus.snoop_fanout::0                 1316290    100.00%    100.00% # Request fanout histogram
system.membus.snoop_fanout::1                       0      0.00%    100.00% # Request fanout histogram
system.membus.snoop_fanout::overflows               0      0.00%    100.00% # Request fanout histogram
system.membus.snoop_fanout::min_value               0                       # Request fanout histogram
system.membus.snoop_fanout::max_value               0                       # Request fanout histogram
system.membus.snoop_fanout::total             1316290                       # Request fanout histogram
system.membus.power_state.pwrStateResidencyTicks::UNDEFINED 371468424000                       # Cumulative time (in ticks) in various power states
system.membus.reqLayer0.occupancy         23408100000                       # Layer occupancy (ticks)
system.membus.reqLayer0.utilization               6.3                       # Layer utilization (%)
system.membus.respLayer1.occupancy        22797168250                       # Layer occupancy (ticks)
system.membus.respLayer1.utilization              6.1                       # Layer utilization (%)
system.tol2bus.trans_dist::ReadResp               464                       # Transaction distribution
system.tol2bus.trans_dist::WritebackDirty      2614911                       # Transaction distribution
system.tol2bus.trans_dist::CleanEvict             558                       # Transaction distribution
system.tol2bus.trans_dist::ReadExReq          1315883                       # Transaction distribution
system.tol2bus.trans_dist::ReadExResp         1315883                       # Transaction distribution
system.tol2bus.trans_dist::ReadCleanReq           272                       # Transaction distribution
system.tol2bus.trans_dist::ReadSharedReq          192                       # Transaction distribution
system.tol2bus.pkt_count_system.cpu.icache.mem_side_port::system.l2.cpu_side_port          544                       # Packet count per connected requestor and responder (bytes)
system.tol2bus.pkt_count_system.cpu.dcache.mem_side_port::system.l2.cpu_side_port      3947713                       # Packet count per connected requestor and responder (bytes)
system.tol2bus.pkt_count::total               3948257                       # Packet count per connected requestor and responder (bytes)
system.tol2bus.pkt_size_system.cpu.icache.mem_side_port::system.l2.cpu_side_port        69632                       # Cumulative packet size per connected requestor and responder (bytes)
system.tol2bus.pkt_size_system.cpu.dcache.mem_side_port::system.l2.cpu_side_port    673657344                       # Cumulative packet size per connected requestor and responder (bytes)
system.tol2bus.pkt_size::total              673726976                       # Cumulative packet size per connected requestor and responder (bytes)
system.tol2bus.snoops                         1299906                       # Total snoops (count)
system.tol2bus.snoopTraffic                 332675072                       # Total snoop traffic (bytes)
system.tol2bus.snoop_fanout::samples          2616253                       # Request fanout histogram
system.tol2bus.snoop_fanout::mean            0.000131                       # Request fanout histogram
system.tol2bus.snoop_fanout::stdev           0.011466                       # Request fanout histogram
system.tol2bus.snoop_fanout::underflows             0      0.00%      0.00% # Request fanout histogram
system.tol2bus.snoop_fanout::0                2615909     99.99%     99.99% # Request fanout histogram
system.tol2bus.snoop_fanout::1                    344      0.01%    100.00% # Request fanout histogram
system.tol2bus.snoop_fanout::2                      0      0.00%    100.00% # Request fanout histogram
system.tol2bus.snoop_fanout::overflows              0      0.00%    100.00% # Request fanout histogram
system.tol2bus.snoop_fanout::min_value              0                       # Request fanout histogram
system.tol2bus.snoop_fanout::max_value              1                       # Request fanout histogram
system.tol2bus.snoop_fanout::total            2616253                       # Request fanout histogram
system.tol2bus.power_state.pwrStateResidencyTicks::UNDEFINED 371468424000                       # Cumulative time (in ticks) in various power states
system.tol2bus.reqLayer0.occupancy        13155102000                       # Layer occupancy (ticks)
system.tol2bus.reqLayer0.utilization              3.5                       # Layer utilization (%)
system.tol2bus.respLayer0.occupancy           2448999                       # Layer occupancy (ticks)
system.tol2bus.respLayer0.utilization             0.0                       # Layer utilization (%)
system.tol2bus.respLayer1.occupancy       11844681993                       # Layer occupancy (ticks)
system.tol2bus.respLayer1.utilization             3.2                       # Layer utilization (%)
system.voltage_domain.voltage                       1                       # Voltage in Volts

---------- End Simulation Statistics   ----------
