
---------- Begin Simulation Statistics ----------
final_tick                                57692373000                       # Number of ticks from beginning of simulation (restored from checkpoints and never reset)
host_inst_rate                                 202883                       # Simulator instruction rate (inst/s)
host_mem_usage                                 652524                       # Number of bytes of host memory used
host_op_rate                                   222018                       # Simulator op (including micro ops) rate (op/s)
host_seconds                                   492.89                       # Real time elapsed on the host
host_tick_rate                              117048049                       # Simulator tick rate (ticks/s)
sim_freq                                 1000000000000                       # Frequency of simulated ticks
sim_insts                                   100000000                       # Number of instructions simulated
sim_ops                                     109431273                       # Number of ops (including micro ops) simulated
sim_seconds                                  0.057692                       # Number of seconds simulated
sim_ticks                                 57692373000                       # Number of ticks simulated
system.cpu.committedInsts                   100000000                       # Number of instructions committed
system.cpu.committedOps                     109431273                       # Number of ops (including micro ops) committed
system.cpu.cpi                               1.153847                       # CPI: cycles per instruction
system.cpu.discardedOps                        376993                       # Number of ops (including micro ops) which were discarded before commit
system.cpu.idleCycles                         5213321                       # Total number of cycles that the object has spent stopped
system.cpu.ipc                               0.866666                       # IPC: instructions per cycle
system.cpu.numCycles                        115384746                       # number of cpu cycles simulated
system.cpu.numFetchSuspends                         0                       # Number of times Execute suspended instruction fetching
system.cpu.numWorkItemsCompleted                    0                       # number of work items this cpu completed
system.cpu.numWorkItemsStarted                      0                       # number of work items this cpu started
system.cpu.op_class_0::No_OpClass                   0      0.00%      0.00% # Class of committed instruction
system.cpu.op_class_0::IntAlu                72955004     66.67%     66.67% # Class of committed instruction
system.cpu.op_class_0::IntMult                 568364      0.52%     67.19% # Class of committed instruction
system.cpu.op_class_0::IntDiv                       0      0.00%     67.19% # Class of committed instruction
system.cpu.op_class_0::FloatAdd                     0      0.00%     67.19% # Class of committed instruction
system.cpu.op_class_0::FloatCmp                     0      0.00%     67.19% # Class of committed instruction
system.cpu.op_class_0::FloatCvt                     0      0.00%     67.19% # Class of committed instruction
system.cpu.op_class_0::FloatMult                    0      0.00%     67.19% # Class of committed instruction
system.cpu.op_class_0::FloatMultAcc                 0      0.00%     67.19% # Class of committed instruction
system.cpu.op_class_0::FloatDiv                     0      0.00%     67.19% # Class of committed instruction
system.cpu.op_class_0::FloatMisc                    0      0.00%     67.19% # Class of committed instruction
system.cpu.op_class_0::FloatSqrt                    0      0.00%     67.19% # Class of committed instruction
system.cpu.op_class_0::SimdAdd                 241336      0.22%     67.41% # Class of committed instruction
system.cpu.op_class_0::SimdAddAcc                   0      0.00%     67.41% # Class of committed instruction
system.cpu.op_class_0::SimdAlu                 154628      0.14%     67.55% # Class of committed instruction
system.cpu.op_class_0::SimdCmp                 120668      0.11%     67.66% # Class of committed instruction
system.cpu.op_class_0::SimdCvt                      0      0.00%     67.66% # Class of committed instruction
system.cpu.op_class_0::SimdMisc                 44543      0.04%     67.70% # Class of committed instruction
system.cpu.op_class_0::SimdMult                     0      0.00%     67.70% # Class of committed instruction
system.cpu.op_class_0::SimdMultAcc                  0      0.00%     67.70% # Class of committed instruction
system.cpu.op_class_0::SimdShift                    0      0.00%     67.70% # Class of committed instruction
system.cpu.op_class_0::SimdShiftAcc                 0      0.00%     67.70% # Class of committed instruction
system.cpu.op_class_0::SimdDiv                      0      0.00%     67.70% # Class of committed instruction
system.cpu.op_class_0::SimdSqrt                     0      0.00%     67.70% # Class of committed instruction
system.cpu.op_class_0::SimdFloatAdd                 0      0.00%     67.70% # Class of committed instruction
system.cpu.op_class_0::SimdFloatAlu                 0      0.00%     67.70% # Class of committed instruction
system.cpu.op_class_0::SimdFloatCmp                 0      0.00%     67.70% # Class of committed instruction
system.cpu.op_class_0::SimdFloatCvt                 0      0.00%     67.70% # Class of committed instruction
system.cpu.op_class_0::SimdFloatDiv                 0      0.00%     67.70% # Class of committed instruction
system.cpu.op_class_0::SimdFloatMisc           166417      0.15%     67.85% # Class of committed instruction
system.cpu.op_class_0::SimdFloatMult                0      0.00%     67.85% # Class of committed instruction
system.cpu.op_class_0::SimdFloatMultAcc             0      0.00%     67.85% # Class of committed instruction
system.cpu.op_class_0::SimdFloatSqrt                0      0.00%     67.85% # Class of committed instruction
system.cpu.op_class_0::SimdReduceAdd                0      0.00%     67.85% # Class of committed instruction
system.cpu.op_class_0::SimdReduceAlu                0      0.00%     67.85% # Class of committed instruction
system.cpu.op_class_0::SimdReduceCmp                0      0.00%     67.85% # Class of committed instruction
system.cpu.op_class_0::SimdFloatReduceAdd            0      0.00%     67.85% # Class of committed instruction
system.cpu.op_class_0::SimdFloatReduceCmp            0      0.00%     67.85% # Class of committed instruction
system.cpu.op_class_0::SimdAes                      0      0.00%     67.85% # Class of committed instruction
system.cpu.op_class_0::SimdAesMix                   0      0.00%     67.85% # Class of committed instruction
system.cpu.op_class_0::SimdSha1Hash                 0      0.00%     67.85% # Class of committed instruction
system.cpu.op_class_0::SimdSha1Hash2                0      0.00%     67.85% # Class of committed instruction
system.cpu.op_class_0::SimdSha256Hash               0      0.00%     67.85% # Class of committed instruction
system.cpu.op_class_0::SimdSha256Hash2              0      0.00%     67.85% # Class of committed instruction
system.cpu.op_class_0::SimdShaSigma2                0      0.00%     67.85% # Class of committed instruction
system.cpu.op_class_0::SimdShaSigma3                0      0.00%     67.85% # Class of committed instruction
system.cpu.op_class_0::SimdPredAlu                  0      0.00%     67.85% # Class of committed instruction
system.cpu.op_class_0::MemRead               20645993     18.87%     86.72% # Class of committed instruction
system.cpu.op_class_0::MemWrite              14534320     13.28%    100.00% # Class of committed instruction
system.cpu.op_class_0::FloatMemRead                 0      0.00%    100.00% # Class of committed instruction
system.cpu.op_class_0::FloatMemWrite                0      0.00%    100.00% # Class of committed instruction
system.cpu.op_class_0::IprAccess                    0      0.00%    100.00% # Class of committed instruction
system.cpu.op_class_0::InstPrefetch                 0      0.00%    100.00% # Class of committed instruction
system.cpu.op_class_0::total                109431273                       # Class of committed instruction
system.cpu.tickCycles                       110171425                       # Number of cycles that the object actually ticked
system.cpu.workload.numSyscalls                    87                       # Number of system calls
system.membus.snoop_filter.hit_multi_requests            0                       # Number of requests hitting in the snoop filter with multiple (>1) holders of the requested data.
system.membus.snoop_filter.hit_multi_snoops            0                       # Number of snoops hitting in the snoop filter with multiple (>1) holders of the requested data.
system.membus.snoop_filter.hit_single_requests        38031                       # Number of requests hitting in the snoop filter with a single holder of the requested data.
system.membus.snoop_filter.hit_single_snoops            0                       # Number of snoops hitting in the snoop filter with a single holder of the requested data.
system.membus.snoop_filter.tot_requests         84682                       # Total number of requests made to the snoop filter.
system.membus.snoop_filter.tot_snoops               0                       # Total number of snoops made to the snoop filter.
system.tol2bus.snoop_filter.hit_multi_requests         1155                       # Number of requests hitting in the snoop filter with multiple (>1) holders of the requested data.
system.tol2bus.snoop_filter.hit_multi_snoops           23                       # Number of snoops hitting in the snoop filter with multiple (>1) holders of the requested data.
system.tol2bus.snoop_filter.hit_single_requests        60566                       # Number of requests hitting in the snoop filter with a single holder of the requested data.
system.tol2bus.snoop_filter.hit_single_snoops         1842                       # Number of snoops hitting in the snoop filter with a single holder of the requested data.
system.tol2bus.snoop_filter.tot_requests       123628                       # Total number of requests made to the snoop filter.
system.tol2bus.snoop_filter.tot_snoops           1865                       # Total number of snoops made to the snoop filter.
system.clk_domain.clock                          1000                       # Clock period in ticks
system.cpu.branchPred.lookups                20360462                       # Number of BP lookups
system.cpu.branchPred.condPredicted          16297741                       # Number of conditional branches predicted
system.cpu.branchPred.condIncorrect             53504                       # Number of conditional branches incorrect
system.cpu.branchPred.BTBLookups              8737495                       # Number of BTB lookups
system.cpu.branchPred.BTBHits                 8736103                       # Number of BTB hits
system.cpu.branchPred.BTBHitPct             99.984069                       # BTB Hit Percentage
system.cpu.branchPred.RASUsed                 1050522                       # Number of times the RAS was used to get a target.
system.cpu.branchPred.RASIncorrect                324                       # Number of incorrect RAS predictions.
system.cpu.branchPred.indirectLookups          434067                       # Number of indirect predictor lookups.
system.cpu.branchPred.indirectHits             300030                       # Number of indirect target hits.
system.cpu.branchPred.indirectMisses           134037                       # Number of indirect misses.
system.cpu.branchPred.indirectMispredicted         1037                       # Number of mispredicted indirect branches.
system.cpu.dcache.demand_hits::.cpu.data     35601326                       # number of demand (read+write) hits
system.cpu.dcache.demand_hits::total         35601326                       # number of demand (read+write) hits
system.cpu.dcache.overall_hits::.cpu.data     35604637                       # number of overall hits
system.cpu.dcache.overall_hits::total        35604637                       # number of overall hits
system.cpu.dcache.demand_misses::.cpu.data        84850                       # number of demand (read+write) misses
system.cpu.dcache.demand_misses::total          84850                       # number of demand (read+write) misses
system.cpu.dcache.overall_misses::.cpu.data        84900                       # number of overall misses
system.cpu.dcache.overall_misses::total         84900                       # number of overall misses
system.cpu.dcache.demand_miss_latency::.cpu.data   5424862500                       # number of demand (read+write) miss cycles
system.cpu.dcache.demand_miss_latency::total   5424862500                       # number of demand (read+write) miss cycles
system.cpu.dcache.overall_miss_latency::.cpu.data   5424862500                       # number of overall miss cycles
system.cpu.dcache.overall_miss_latency::total   5424862500                       # number of overall miss cycles
system.cpu.dcache.demand_accesses::.cpu.data     35686176                       # number of demand (read+write) accesses
system.cpu.dcache.demand_accesses::total     35686176                       # number of demand (read+write) accesses
system.cpu.dcache.overall_accesses::.cpu.data     35689537                       # number of overall (read+write) accesses
system.cpu.dcache.overall_accesses::total     35689537                       # number of overall (read+write) accesses
system.cpu.dcache.demand_miss_rate::.cpu.data     0.002378                       # miss rate for demand accesses
system.cpu.dcache.demand_miss_rate::total     0.002378                       # miss rate for demand accesses
system.cpu.dcache.overall_miss_rate::.cpu.data     0.002379                       # miss rate for overall accesses
system.cpu.dcache.overall_miss_rate::total     0.002379                       # miss rate for overall accesses
system.cpu.dcache.demand_avg_miss_latency::.cpu.data 63934.737773                       # average overall miss latency
system.cpu.dcache.demand_avg_miss_latency::total 63934.737773                       # average overall miss latency
system.cpu.dcache.overall_avg_miss_latency::.cpu.data 63897.084806                       # average overall miss latency
system.cpu.dcache.overall_avg_miss_latency::total 63897.084806                       # average overall miss latency
system.cpu.dcache.blocked_cycles::no_mshrs            0                       # number of cycles access was blocked
system.cpu.dcache.blocked_cycles::no_targets            0                       # number of cycles access was blocked
system.cpu.dcache.blocked::no_mshrs                 0                       # number of cycles access was blocked
system.cpu.dcache.blocked::no_targets               0                       # number of cycles access was blocked
system.cpu.dcache.avg_blocked_cycles::no_mshrs          nan                       # average number of cycles each access was blocked
system.cpu.dcache.avg_blocked_cycles::no_targets          nan                       # average number of cycles each access was blocked
system.cpu.dcache.writebacks::.writebacks        52568                       # number of writebacks
system.cpu.dcache.writebacks::total             52568                       # number of writebacks
system.cpu.dcache.demand_mshr_hits::.cpu.data        22605                       # number of demand (read+write) MSHR hits
system.cpu.dcache.demand_mshr_hits::total        22605                       # number of demand (read+write) MSHR hits
system.cpu.dcache.overall_mshr_hits::.cpu.data        22605                       # number of overall MSHR hits
system.cpu.dcache.overall_mshr_hits::total        22605                       # number of overall MSHR hits
system.cpu.dcache.demand_mshr_misses::.cpu.data        62245                       # number of demand (read+write) MSHR misses
system.cpu.dcache.demand_mshr_misses::total        62245                       # number of demand (read+write) MSHR misses
system.cpu.dcache.overall_mshr_misses::.cpu.data        62290                       # number of overall MSHR misses
system.cpu.dcache.overall_mshr_misses::total        62290                       # number of overall MSHR misses
system.cpu.dcache.demand_mshr_miss_latency::.cpu.data   4204893000                       # number of demand (read+write) MSHR miss cycles
system.cpu.dcache.demand_mshr_miss_latency::total   4204893000                       # number of demand (read+write) MSHR miss cycles
system.cpu.dcache.overall_mshr_miss_latency::.cpu.data   4206923500                       # number of overall MSHR miss cycles
system.cpu.dcache.overall_mshr_miss_latency::total   4206923500                       # number of overall MSHR miss cycles
system.cpu.dcache.demand_mshr_miss_rate::.cpu.data     0.001744                       # mshr miss rate for demand accesses
system.cpu.dcache.demand_mshr_miss_rate::total     0.001744                       # mshr miss rate for demand accesses
system.cpu.dcache.overall_mshr_miss_rate::.cpu.data     0.001745                       # mshr miss rate for overall accesses
system.cpu.dcache.overall_mshr_miss_rate::total     0.001745                       # mshr miss rate for overall accesses
system.cpu.dcache.demand_avg_mshr_miss_latency::.cpu.data 67553.907944                       # average overall mshr miss latency
system.cpu.dcache.demand_avg_mshr_miss_latency::total 67553.907944                       # average overall mshr miss latency
system.cpu.dcache.overall_avg_mshr_miss_latency::.cpu.data 67537.702681                       # average overall mshr miss latency
system.cpu.dcache.overall_avg_mshr_miss_latency::total 67537.702681                       # average overall mshr miss latency
system.cpu.dcache.replacements                  60248                       # number of replacements
system.cpu.dcache.ReadReq_hits::.cpu.data     21406184                       # number of ReadReq hits
system.cpu.dcache.ReadReq_hits::total        21406184                       # number of ReadReq hits
system.cpu.dcache.ReadReq_misses::.cpu.data        25729                       # number of ReadReq misses
system.cpu.dcache.ReadReq_misses::total         25729                       # number of ReadReq misses
system.cpu.dcache.ReadReq_miss_latency::.cpu.data    968027000                       # number of ReadReq miss cycles
system.cpu.dcache.ReadReq_miss_latency::total    968027000                       # number of ReadReq miss cycles
system.cpu.dcache.ReadReq_accesses::.cpu.data     21431913                       # number of ReadReq accesses(hits+misses)
system.cpu.dcache.ReadReq_accesses::total     21431913                       # number of ReadReq accesses(hits+misses)
system.cpu.dcache.ReadReq_miss_rate::.cpu.data     0.001200                       # miss rate for ReadReq accesses
system.cpu.dcache.ReadReq_miss_rate::total     0.001200                       # miss rate for ReadReq accesses
system.cpu.dcache.ReadReq_avg_miss_latency::.cpu.data 37623.965175                       # average ReadReq miss latency
system.cpu.dcache.ReadReq_avg_miss_latency::total 37623.965175                       # average ReadReq miss latency
system.cpu.dcache.ReadReq_mshr_hits::.cpu.data         4425                       # number of ReadReq MSHR hits
system.cpu.dcache.ReadReq_mshr_hits::total         4425                       # number of ReadReq MSHR hits
system.cpu.dcache.ReadReq_mshr_misses::.cpu.data        21304                       # number of ReadReq MSHR misses
system.cpu.dcache.ReadReq_mshr_misses::total        21304                       # number of ReadReq MSHR misses
system.cpu.dcache.ReadReq_mshr_miss_latency::.cpu.data    860159500                       # number of ReadReq MSHR miss cycles
system.cpu.dcache.ReadReq_mshr_miss_latency::total    860159500                       # number of ReadReq MSHR miss cycles
system.cpu.dcache.ReadReq_mshr_miss_rate::.cpu.data     0.000994                       # mshr miss rate for ReadReq accesses
system.cpu.dcache.ReadReq_mshr_miss_rate::total     0.000994                       # mshr miss rate for ReadReq accesses
system.cpu.dcache.ReadReq_avg_mshr_miss_latency::.cpu.data 40375.492865                       # average ReadReq mshr miss latency
system.cpu.dcache.ReadReq_avg_mshr_miss_latency::total 40375.492865                       # average ReadReq mshr miss latency
system.cpu.dcache.WriteReq_hits::.cpu.data     14195142                       # number of WriteReq hits
system.cpu.dcache.WriteReq_hits::total       14195142                       # number of WriteReq hits
system.cpu.dcache.WriteReq_misses::.cpu.data        59121                       # number of WriteReq misses
system.cpu.dcache.WriteReq_misses::total        59121                       # number of WriteReq misses
system.cpu.dcache.WriteReq_miss_latency::.cpu.data   4456835500                       # number of WriteReq miss cycles
system.cpu.dcache.WriteReq_miss_latency::total   4456835500                       # number of WriteReq miss cycles
system.cpu.dcache.WriteReq_accesses::.cpu.data     14254263                       # number of WriteReq accesses(hits+misses)
system.cpu.dcache.WriteReq_accesses::total     14254263                       # number of WriteReq accesses(hits+misses)
system.cpu.dcache.WriteReq_miss_rate::.cpu.data     0.004148                       # miss rate for WriteReq accesses
system.cpu.dcache.WriteReq_miss_rate::total     0.004148                       # miss rate for WriteReq accesses
system.cpu.dcache.WriteReq_avg_miss_latency::.cpu.data 75384.981648                       # average WriteReq miss latency
system.cpu.dcache.WriteReq_avg_miss_latency::total 75384.981648                       # average WriteReq miss latency
system.cpu.dcache.WriteReq_mshr_hits::.cpu.data        18180                       # number of WriteReq MSHR hits
system.cpu.dcache.WriteReq_mshr_hits::total        18180                       # number of WriteReq MSHR hits
system.cpu.dcache.WriteReq_mshr_misses::.cpu.data        40941                       # number of WriteReq MSHR misses
system.cpu.dcache.WriteReq_mshr_misses::total        40941                       # number of WriteReq MSHR misses
system.cpu.dcache.WriteReq_mshr_miss_latency::.cpu.data   3344733500                       # number of WriteReq MSHR miss cycles
system.cpu.dcache.WriteReq_mshr_miss_latency::total   3344733500                       # number of WriteReq MSHR miss cycles
system.cpu.dcache.WriteReq_mshr_miss_rate::.cpu.data     0.002872                       # mshr miss rate for WriteReq accesses
system.cpu.dcache.WriteReq_mshr_miss_rate::total     0.002872                       # mshr miss rate for WriteReq accesses
system.cpu.dcache.WriteReq_avg_mshr_miss_latency::.cpu.data 81696.429008                       # average WriteReq mshr miss latency
system.cpu.dcache.WriteReq_avg_mshr_miss_latency::total 81696.429008                       # average WriteReq mshr miss latency
system.cpu.dcache.SoftPFReq_hits::.cpu.data         3311                       # number of SoftPFReq hits
system.cpu.dcache.SoftPFReq_hits::total          3311                       # number of SoftPFReq hits
system.cpu.dcache.SoftPFReq_misses::.cpu.data           50                       # number of SoftPFReq misses
system.cpu.dcache.SoftPFReq_misses::total           50                       # number of SoftPFReq misses
system.cpu.dcache.SoftPFReq_accesses::.cpu.data         3361                       # number of SoftPFReq accesses(hits+misses)
system.cpu.dcache.SoftPFReq_accesses::total         3361                       # number of SoftPFReq accesses(hits+misses)
system.cpu.dcache.SoftPFReq_miss_rate::.cpu.data     0.014877                       # miss rate for SoftPFReq accesses
system.cpu.dcache.SoftPFReq_miss_rate::total     0.014877                       # miss rate for SoftPFReq accesses
system.cpu.dcache.SoftPFReq_mshr_misses::.cpu.data           45                       # number of SoftPFReq MSHR misses
system.cpu.dcache.SoftPFReq_mshr_misses::total           45                       # number of SoftPFReq MSHR misses
system.cpu.dcache.SoftPFReq_mshr_miss_latency::.cpu.data      2030500                       # number of SoftPFReq MSHR miss cycles
system.cpu.dcache.SoftPFReq_mshr_miss_latency::total      2030500                       # number of SoftPFReq MSHR miss cycles
system.cpu.dcache.SoftPFReq_mshr_miss_rate::.cpu.data     0.013389                       # mshr miss rate for SoftPFReq accesses
system.cpu.dcache.SoftPFReq_mshr_miss_rate::total     0.013389                       # mshr miss rate for SoftPFReq accesses
system.cpu.dcache.SoftPFReq_avg_mshr_miss_latency::.cpu.data 45122.222222                       # average SoftPFReq mshr miss latency
system.cpu.dcache.SoftPFReq_avg_mshr_miss_latency::total 45122.222222                       # average SoftPFReq mshr miss latency
system.cpu.dcache.LoadLockedReq_hits::.cpu.data        89080                       # number of LoadLockedReq hits
system.cpu.dcache.LoadLockedReq_hits::total        89080                       # number of LoadLockedReq hits
system.cpu.dcache.LoadLockedReq_misses::.cpu.data            6                       # number of LoadLockedReq misses
system.cpu.dcache.LoadLockedReq_misses::total            6                       # number of LoadLockedReq misses
system.cpu.dcache.LoadLockedReq_miss_latency::.cpu.data       162000                       # number of LoadLockedReq miss cycles
system.cpu.dcache.LoadLockedReq_miss_latency::total       162000                       # number of LoadLockedReq miss cycles
system.cpu.dcache.LoadLockedReq_accesses::.cpu.data        89086                       # number of LoadLockedReq accesses(hits+misses)
system.cpu.dcache.LoadLockedReq_accesses::total        89086                       # number of LoadLockedReq accesses(hits+misses)
system.cpu.dcache.LoadLockedReq_miss_rate::.cpu.data     0.000067                       # miss rate for LoadLockedReq accesses
system.cpu.dcache.LoadLockedReq_miss_rate::total     0.000067                       # miss rate for LoadLockedReq accesses
system.cpu.dcache.LoadLockedReq_avg_miss_latency::.cpu.data        27000                       # average LoadLockedReq miss latency
system.cpu.dcache.LoadLockedReq_avg_miss_latency::total        27000                       # average LoadLockedReq miss latency
system.cpu.dcache.LoadLockedReq_mshr_misses::.cpu.data            6                       # number of LoadLockedReq MSHR misses
system.cpu.dcache.LoadLockedReq_mshr_misses::total            6                       # number of LoadLockedReq MSHR misses
system.cpu.dcache.LoadLockedReq_mshr_miss_latency::.cpu.data       156000                       # number of LoadLockedReq MSHR miss cycles
system.cpu.dcache.LoadLockedReq_mshr_miss_latency::total       156000                       # number of LoadLockedReq MSHR miss cycles
system.cpu.dcache.LoadLockedReq_mshr_miss_rate::.cpu.data     0.000067                       # mshr miss rate for LoadLockedReq accesses
system.cpu.dcache.LoadLockedReq_mshr_miss_rate::total     0.000067                       # mshr miss rate for LoadLockedReq accesses
system.cpu.dcache.LoadLockedReq_avg_mshr_miss_latency::.cpu.data        26000                       # average LoadLockedReq mshr miss latency
system.cpu.dcache.LoadLockedReq_avg_mshr_miss_latency::total        26000                       # average LoadLockedReq mshr miss latency
system.cpu.dcache.StoreCondReq_hits::.cpu.data        89080                       # number of StoreCondReq hits
system.cpu.dcache.StoreCondReq_hits::total        89080                       # number of StoreCondReq hits
system.cpu.dcache.StoreCondReq_accesses::.cpu.data        89080                       # number of StoreCondReq accesses(hits+misses)
system.cpu.dcache.StoreCondReq_accesses::total        89080                       # number of StoreCondReq accesses(hits+misses)
system.cpu.dcache.power_state.pwrStateResidencyTicks::UNDEFINED  57692373000                       # Cumulative time (in ticks) in various power states
system.cpu.dcache.tags.tagsinuse          2033.960024                       # Cycle average of tags in use
system.cpu.dcache.tags.total_refs            35845093                       # Total number of references to valid blocks.
system.cpu.dcache.tags.sampled_refs             62296                       # Sample count of references to valid blocks.
system.cpu.dcache.tags.avg_refs            575.399592                       # Average number of references to valid blocks.
system.cpu.dcache.tags.warmup_cycle            176500                       # Cycle when the warmup percentage was hit.
system.cpu.dcache.tags.occ_blocks::.cpu.data  2033.960024                       # Average occupied blocks per requestor
system.cpu.dcache.tags.occ_percent::.cpu.data     0.993145                       # Average percentage of cache occupancy
system.cpu.dcache.tags.occ_percent::total     0.993145                       # Average percentage of cache occupancy
system.cpu.dcache.tags.occ_task_id_blocks::1024         2048                       # Occupied blocks per task id
system.cpu.dcache.tags.age_task_id_blocks_1024::0            4                       # Occupied blocks per task id
system.cpu.dcache.tags.age_task_id_blocks_1024::1           42                       # Occupied blocks per task id
system.cpu.dcache.tags.age_task_id_blocks_1024::2          532                       # Occupied blocks per task id
system.cpu.dcache.tags.age_task_id_blocks_1024::3         1470                       # Occupied blocks per task id
system.cpu.dcache.tags.occ_task_id_percent::1024            1                       # Percentage of cache occupancy per task id
system.cpu.dcache.tags.tag_accesses          35929999                       # Number of tag accesses
system.cpu.dcache.tags.data_accesses         35929999                       # Number of data accesses
system.cpu.dcache.tags.power_state.pwrStateResidencyTicks::UNDEFINED  57692373000                       # Cumulative time (in ticks) in various power states
system.cpu.dtb.instHits                             0                       # ITB inst hits
system.cpu.dtb.instMisses                           0                       # ITB inst misses
system.cpu.dtb.readHits                             0                       # DTB read hits
system.cpu.dtb.readMisses                           0                       # DTB read misses
system.cpu.dtb.writeHits                            0                       # DTB write hits
system.cpu.dtb.writeMisses                          0                       # DTB write misses
system.cpu.dtb.inserts                              0                       # Number of times an entry is inserted into the TLB
system.cpu.dtb.flushTlb                             0                       # Number of times complete TLB was flushed
system.cpu.dtb.flushTlbMva                          0                       # Number of times TLB was flushed by MVA
system.cpu.dtb.flushTlbMvaAsid                      0                       # Number of times TLB was flushed by MVA & ASID
system.cpu.dtb.flushTlbAsid                         0                       # Number of times TLB was flushed by ASID
system.cpu.dtb.flushedEntries                       0                       # Number of entries that have been flushed from TLB
system.cpu.dtb.alignFaults                          0                       # Number of TLB faults due to alignment restrictions
system.cpu.dtb.prefetchFaults                       0                       # Number of TLB faults due to prefetch
system.cpu.dtb.domainFaults                         0                       # Number of TLB faults due to domain restrictions
system.cpu.dtb.permsFaults                          0                       # Number of TLB faults due to permissions restrictions
system.cpu.dtb.readAccesses                         0                       # DTB read accesses
system.cpu.dtb.writeAccesses                        0                       # DTB write accesses
system.cpu.dtb.instAccesses                         0                       # ITB inst accesses
system.cpu.dtb.hits                                 0                       # Total TLB (inst and data) hits
system.cpu.dtb.misses                               0                       # Total TLB (inst and data) misses
system.cpu.dtb.accesses                             0                       # Total TLB (inst and data) accesses
system.cpu.dtb.stage2_mmu.stage2_tlb.instHits            0                       # ITB inst hits
system.cpu.dtb.stage2_mmu.stage2_tlb.instMisses            0                       # ITB inst misses
system.cpu.dtb.stage2_mmu.stage2_tlb.readHits            0                       # DTB read hits
system.cpu.dtb.stage2_mmu.stage2_tlb.readMisses            0                       # DTB read misses
system.cpu.dtb.stage2_mmu.stage2_tlb.writeHits            0                       # DTB write hits
system.cpu.dtb.stage2_mmu.stage2_tlb.writeMisses            0                       # DTB write misses
system.cpu.dtb.stage2_mmu.stage2_tlb.inserts            0                       # Number of times an entry is inserted into the TLB
system.cpu.dtb.stage2_mmu.stage2_tlb.flushTlb            0                       # Number of times complete TLB was flushed
system.cpu.dtb.stage2_mmu.stage2_tlb.flushTlbMva            0                       # Number of times TLB was flushed by MVA
system.cpu.dtb.stage2_mmu.stage2_tlb.flushTlbMvaAsid            0                       # Number of times TLB was flushed by MVA & ASID
system.cpu.dtb.stage2_mmu.stage2_tlb.flushTlbAsid            0                       # Number of times TLB was flushed by ASID
system.cpu.dtb.stage2_mmu.stage2_tlb.flushedEntries            0                       # Number of entries that have been flushed from TLB
system.cpu.dtb.stage2_mmu.stage2_tlb.alignFaults            0                       # Number of TLB faults due to alignment restrictions
system.cpu.dtb.stage2_mmu.stage2_tlb.prefetchFaults            0                       # Number of TLB faults due to prefetch
system.cpu.dtb.stage2_mmu.stage2_tlb.domainFaults            0                       # Number of TLB faults due to domain restrictions
system.cpu.dtb.stage2_mmu.stage2_tlb.permsFaults            0                       # Number of TLB faults due to permissions restrictions
system.cpu.dtb.stage2_mmu.stage2_tlb.readAccesses            0                       # DTB read accesses
system.cpu.dtb.stage2_mmu.stage2_tlb.writeAccesses            0                       # DTB write accesses
system.cpu.dtb.stage2_mmu.stage2_tlb.instAccesses            0                       # ITB inst accesses
system.cpu.dtb.stage2_mmu.stage2_tlb.hits            0                       # Total TLB (inst and data) hits
system.cpu.dtb.stage2_mmu.stage2_tlb.misses            0                       # Total TLB (inst and data) misses
system.cpu.dtb.stage2_mmu.stage2_tlb.accesses            0                       # Total TLB (inst and data) accesses
system.cpu.dtb.stage2_mmu.stage2_tlb.walker.walks            0                       # Table walker walks requested
system.cpu.dtb.stage2_mmu.stage2_tlb.walker.requestOrigin_Requested::Data            0                       # Table walker requests started/completed, data/inst
system.cpu.dtb.stage2_mmu.stage2_tlb.walker.requestOrigin_Requested::Inst            0                       # Table walker requests started/completed, data/inst
system.cpu.dtb.stage2_mmu.stage2_tlb.walker.requestOrigin_Requested::total            0                       # Table walker requests started/completed, data/inst
system.cpu.dtb.stage2_mmu.stage2_tlb.walker.requestOrigin_Completed::Data            0                       # Table walker requests started/completed, data/inst
system.cpu.dtb.stage2_mmu.stage2_tlb.walker.requestOrigin_Completed::Inst            0                       # Table walker requests started/completed, data/inst
system.cpu.dtb.stage2_mmu.stage2_tlb.walker.requestOrigin_Completed::total            0                       # Table walker requests started/completed, data/inst
system.cpu.dtb.stage2_mmu.stage2_tlb.walker.requestOrigin::total            0                       # Table walker requests started/completed, data/inst
system.cpu.dtb.stage2_mmu.stage2_tlb.walker.power_state.pwrStateResidencyTicks::UNDEFINED  57692373000                       # Cumulative time (in ticks) in various power states
system.cpu.dtb.walker.walks                         0                       # Table walker walks requested
system.cpu.dtb.walker.requestOrigin_Requested::Data            0                       # Table walker requests started/completed, data/inst
system.cpu.dtb.walker.requestOrigin_Requested::Inst            0                       # Table walker requests started/completed, data/inst
system.cpu.dtb.walker.requestOrigin_Requested::total            0                       # Table walker requests started/completed, data/inst
system.cpu.dtb.walker.requestOrigin_Completed::Data            0                       # Table walker requests started/completed, data/inst
system.cpu.dtb.walker.requestOrigin_Completed::Inst            0                       # Table walker requests started/completed, data/inst
system.cpu.dtb.walker.requestOrigin_Completed::total            0                       # Table walker requests started/completed, data/inst
system.cpu.dtb.walker.requestOrigin::total            0                       # Table walker requests started/completed, data/inst
system.cpu.dtb.walker.power_state.pwrStateResidencyTicks::UNDEFINED  57692373000                       # Cumulative time (in ticks) in various power states
system.cpu.fetch2.intInstructions            49238910                       # Number of integer instructions successfully decoded
system.cpu.fetch2.fpInstructions                    0                       # Number of floating point instructions successfully decoded
system.cpu.fetch2.vecInstructions                   0                       # Number of SIMD instructions successfully decoded
system.cpu.fetch2.loadInstructions           17106584                       # Number of memory load instructions successfully decoded
system.cpu.fetch2.storeInstructions           9764066                       # Number of memory store instructions successfully decoded
system.cpu.fetch2.amoInstructions                   0                       # Number of memory atomic instructions successfully decoded
system.cpu.icache.demand_hits::.cpu.inst     28364355                       # number of demand (read+write) hits
system.cpu.icache.demand_hits::total         28364355                       # number of demand (read+write) hits
system.cpu.icache.overall_hits::.cpu.inst     28364355                       # number of overall hits
system.cpu.icache.overall_hits::total        28364355                       # number of overall hits
system.cpu.icache.demand_misses::.cpu.inst          770                       # number of demand (read+write) misses
system.cpu.icache.demand_misses::total            770                       # number of demand (read+write) misses
system.cpu.icache.overall_misses::.cpu.inst          770                       # number of overall misses
system.cpu.icache.overall_misses::total           770                       # number of overall misses
system.cpu.icache.demand_miss_latency::.cpu.inst     44811500                       # number of demand (read+write) miss cycles
system.cpu.icache.demand_miss_latency::total     44811500                       # number of demand (read+write) miss cycles
system.cpu.icache.overall_miss_latency::.cpu.inst     44811500                       # number of overall miss cycles
system.cpu.icache.overall_miss_latency::total     44811500                       # number of overall miss cycles
system.cpu.icache.demand_accesses::.cpu.inst     28365125                       # number of demand (read+write) accesses
system.cpu.icache.demand_accesses::total     28365125                       # number of demand (read+write) accesses
system.cpu.icache.overall_accesses::.cpu.inst     28365125                       # number of overall (read+write) accesses
system.cpu.icache.overall_accesses::total     28365125                       # number of overall (read+write) accesses
system.cpu.icache.demand_miss_rate::.cpu.inst     0.000027                       # miss rate for demand accesses
system.cpu.icache.demand_miss_rate::total     0.000027                       # miss rate for demand accesses
system.cpu.icache.overall_miss_rate::.cpu.inst     0.000027                       # miss rate for overall accesses
system.cpu.icache.overall_miss_rate::total     0.000027                       # miss rate for overall accesses
system.cpu.icache.demand_avg_miss_latency::.cpu.inst 58196.753247                       # average overall miss latency
system.cpu.icache.demand_avg_miss_latency::total 58196.753247                       # average overall miss latency
system.cpu.icache.overall_avg_miss_latency::.cpu.inst 58196.753247                       # average overall miss latency
system.cpu.icache.overall_avg_miss_latency::total 58196.753247                       # average overall miss latency
system.cpu.icache.blocked_cycles::no_mshrs            0                       # number of cycles access was blocked
system.cpu.icache.blocked_cycles::no_targets            0                       # number of cycles access was blocked
system.cpu.icache.blocked::no_mshrs                 0                       # number of cycles access was blocked
system.cpu.icache.blocked::no_targets               0                       # number of cycles access was blocked
system.cpu.icache.avg_blocked_cycles::no_mshrs          nan                       # average number of cycles each access was blocked
system.cpu.icache.avg_blocked_cycles::no_targets          nan                       # average number of cycles each access was blocked
system.cpu.icache.writebacks::.writebacks          314                       # number of writebacks
system.cpu.icache.writebacks::total               314                       # number of writebacks
system.cpu.icache.demand_mshr_misses::.cpu.inst          770                       # number of demand (read+write) MSHR misses
system.cpu.icache.demand_mshr_misses::total          770                       # number of demand (read+write) MSHR misses
system.cpu.icache.overall_mshr_misses::.cpu.inst          770                       # number of overall MSHR misses
system.cpu.icache.overall_mshr_misses::total          770                       # number of overall MSHR misses
system.cpu.icache.demand_mshr_miss_latency::.cpu.inst     44041500                       # number of demand (read+write) MSHR miss cycles
system.cpu.icache.demand_mshr_miss_latency::total     44041500                       # number of demand (read+write) MSHR miss cycles
system.cpu.icache.overall_mshr_miss_latency::.cpu.inst     44041500                       # number of overall MSHR miss cycles
system.cpu.icache.overall_mshr_miss_latency::total     44041500                       # number of overall MSHR miss cycles
system.cpu.icache.demand_mshr_miss_rate::.cpu.inst     0.000027                       # mshr miss rate for demand accesses
system.cpu.icache.demand_mshr_miss_rate::total     0.000027                       # mshr miss rate for demand accesses
system.cpu.icache.overall_mshr_miss_rate::.cpu.inst     0.000027                       # mshr miss rate for overall accesses
system.cpu.icache.overall_mshr_miss_rate::total     0.000027                       # mshr miss rate for overall accesses
system.cpu.icache.demand_avg_mshr_miss_latency::.cpu.inst 57196.753247                       # average overall mshr miss latency
system.cpu.icache.demand_avg_mshr_miss_latency::total 57196.753247                       # average overall mshr miss latency
system.cpu.icache.overall_avg_mshr_miss_latency::.cpu.inst 57196.753247                       # average overall mshr miss latency
system.cpu.icache.overall_avg_mshr_miss_latency::total 57196.753247                       # average overall mshr miss latency
system.cpu.icache.replacements                    314                       # number of replacements
system.cpu.icache.ReadReq_hits::.cpu.inst     28364355                       # number of ReadReq hits
system.cpu.icache.ReadReq_hits::total        28364355                       # number of ReadReq hits
system.cpu.icache.ReadReq_misses::.cpu.inst          770                       # number of ReadReq misses
system.cpu.icache.ReadReq_misses::total           770                       # number of ReadReq misses
system.cpu.icache.ReadReq_miss_latency::.cpu.inst     44811500                       # number of ReadReq miss cycles
system.cpu.icache.ReadReq_miss_latency::total     44811500                       # number of ReadReq miss cycles
system.cpu.icache.ReadReq_accesses::.cpu.inst     28365125                       # number of ReadReq accesses(hits+misses)
system.cpu.icache.ReadReq_accesses::total     28365125                       # number of ReadReq accesses(hits+misses)
system.cpu.icache.ReadReq_miss_rate::.cpu.inst     0.000027                       # miss rate for ReadReq accesses
system.cpu.icache.ReadReq_miss_rate::total     0.000027                       # miss rate for ReadReq accesses
system.cpu.icache.ReadReq_avg_miss_latency::.cpu.inst 58196.753247                       # average ReadReq miss latency
system.cpu.icache.ReadReq_avg_miss_latency::total 58196.753247                       # average ReadReq miss latency
system.cpu.icache.ReadReq_mshr_misses::.cpu.inst          770                       # number of ReadReq MSHR misses
system.cpu.icache.ReadReq_mshr_misses::total          770                       # number of ReadReq MSHR misses
system.cpu.icache.ReadReq_mshr_miss_latency::.cpu.inst     44041500                       # number of ReadReq MSHR miss cycles
system.cpu.icache.ReadReq_mshr_miss_latency::total     44041500                       # number of ReadReq MSHR miss cycles
system.cpu.icache.ReadReq_mshr_miss_rate::.cpu.inst     0.000027                       # mshr miss rate for ReadReq accesses
system.cpu.icache.ReadReq_mshr_miss_rate::total     0.000027                       # mshr miss rate for ReadReq accesses
system.cpu.icache.ReadReq_avg_mshr_miss_latency::.cpu.inst 57196.753247                       # average ReadReq mshr miss latency
system.cpu.icache.ReadReq_avg_mshr_miss_latency::total 57196.753247                       # average ReadReq mshr miss latency
system.cpu.icache.power_state.pwrStateResidencyTicks::UNDEFINED  57692373000                       # Cumulative time (in ticks) in various power states
system.cpu.icache.tags.tagsinuse           455.244671                       # Cycle average of tags in use
system.cpu.icache.tags.total_refs            28365125                       # Total number of references to valid blocks.
system.cpu.icache.tags.sampled_refs               770                       # Sample count of references to valid blocks.
system.cpu.icache.tags.avg_refs          36837.824675                       # Average number of references to valid blocks.
system.cpu.icache.tags.warmup_cycle             87500                       # Cycle when the warmup percentage was hit.
system.cpu.icache.tags.occ_blocks::.cpu.inst   455.244671                       # Average occupied blocks per requestor
system.cpu.icache.tags.occ_percent::.cpu.inst     0.444575                       # Average percentage of cache occupancy
system.cpu.icache.tags.occ_percent::total     0.444575                       # Average percentage of cache occupancy
system.cpu.icache.tags.occ_task_id_blocks::1024          456                       # Occupied blocks per task id
system.cpu.icache.tags.age_task_id_blocks_1024::2            1                       # Occupied blocks per task id
system.cpu.icache.tags.age_task_id_blocks_1024::4          455                       # Occupied blocks per task id
system.cpu.icache.tags.occ_task_id_percent::1024     0.445312                       # Percentage of cache occupancy per task id
system.cpu.icache.tags.tag_accesses          28365895                       # Number of tag accesses
system.cpu.icache.tags.data_accesses         28365895                       # Number of data accesses
system.cpu.icache.tags.power_state.pwrStateResidencyTicks::UNDEFINED  57692373000                       # Cumulative time (in ticks) in various power states
system.cpu.itb.instHits                             0                       # ITB inst hits
system.cpu.itb.instMisses                           0                       # ITB inst misses
system.cpu.itb.readHits                             0                       # DTB read hits
system.cpu.itb.readMisses                           0                       # DTB read misses
system.cpu.itb.writeHits                            0                       # DTB write hits
system.cpu.itb.writeMisses                          0                       # DTB write misses
system.cpu.itb.inserts                              0                       # Number of times an entry is inserted into the TLB
system.cpu.itb.flushTlb                             0                       # Number of times complete TLB was flushed
system.cpu.itb.flushTlbMva                          0                       # Number of times TLB was flushed by MVA
system.cpu.itb.flushTlbMvaAsid                      0                       # Number of times TLB was flushed by MVA & ASID
system.cpu.itb.flushTlbAsid                         0                       # Number of times TLB was flushed by ASID
system.cpu.itb.flushedEntries                       0                       # Number of entries that have been flushed from TLB
system.cpu.itb.alignFaults                          0                       # Number of TLB faults due to alignment restrictions
system.cpu.itb.prefetchFaults                       0                       # Number of TLB faults due to prefetch
system.cpu.itb.domainFaults                         0                       # Number of TLB faults due to domain restrictions
system.cpu.itb.permsFaults                          0                       # Number of TLB faults due to permissions restrictions
system.cpu.itb.readAccesses                         0                       # DTB read accesses
system.cpu.itb.writeAccesses                        0                       # DTB write accesses
system.cpu.itb.instAccesses                         0                       # ITB inst accesses
system.cpu.itb.hits                                 0                       # Total TLB (inst and data) hits
system.cpu.itb.misses                               0                       # Total TLB (inst and data) misses
system.cpu.itb.accesses                             0                       # Total TLB (inst and data) accesses
system.cpu.itb.stage2_mmu.stage2_tlb.instHits            0                       # ITB inst hits
system.cpu.itb.stage2_mmu.stage2_tlb.instMisses            0                       # ITB inst misses
system.cpu.itb.stage2_mmu.stage2_tlb.readHits            0                       # DTB read hits
system.cpu.itb.stage2_mmu.stage2_tlb.readMisses            0                       # DTB read misses
system.cpu.itb.stage2_mmu.stage2_tlb.writeHits            0                       # DTB write hits
system.cpu.itb.stage2_mmu.stage2_tlb.writeMisses            0                       # DTB write misses
system.cpu.itb.stage2_mmu.stage2_tlb.inserts            0                       # Number of times an entry is inserted into the TLB
system.cpu.itb.stage2_mmu.stage2_tlb.flushTlb            0                       # Number of times complete TLB was flushed
system.cpu.itb.stage2_mmu.stage2_tlb.flushTlbMva            0                       # Number of times TLB was flushed by MVA
system.cpu.itb.stage2_mmu.stage2_tlb.flushTlbMvaAsid            0                       # Number of times TLB was flushed by MVA & ASID
system.cpu.itb.stage2_mmu.stage2_tlb.flushTlbAsid            0                       # Number of times TLB was flushed by ASID
system.cpu.itb.stage2_mmu.stage2_tlb.flushedEntries            0                       # Number of entries that have been flushed from TLB
system.cpu.itb.stage2_mmu.stage2_tlb.alignFaults            0                       # Number of TLB faults due to alignment restrictions
system.cpu.itb.stage2_mmu.stage2_tlb.prefetchFaults            0                       # Number of TLB faults due to prefetch
system.cpu.itb.stage2_mmu.stage2_tlb.domainFaults            0                       # Number of TLB faults due to domain restrictions
system.cpu.itb.stage2_mmu.stage2_tlb.permsFaults            0                       # Number of TLB faults due to permissions restrictions
system.cpu.itb.stage2_mmu.stage2_tlb.readAccesses            0                       # DTB read accesses
system.cpu.itb.stage2_mmu.stage2_tlb.writeAccesses            0                       # DTB write accesses
system.cpu.itb.stage2_mmu.stage2_tlb.instAccesses            0                       # ITB inst accesses
system.cpu.itb.stage2_mmu.stage2_tlb.hits            0                       # Total TLB (inst and data) hits
system.cpu.itb.stage2_mmu.stage2_tlb.misses            0                       # Total TLB (inst and data) misses
system.cpu.itb.stage2_mmu.stage2_tlb.accesses            0                       # Total TLB (inst and data) accesses
system.cpu.itb.stage2_mmu.stage2_tlb.walker.walks            0                       # Table walker walks requested
system.cpu.itb.stage2_mmu.stage2_tlb.walker.requestOrigin_Requested::Data            0                       # Table walker requests started/completed, data/inst
system.cpu.itb.stage2_mmu.stage2_tlb.walker.requestOrigin_Requested::Inst            0                       # Table walker requests started/completed, data/inst
system.cpu.itb.stage2_mmu.stage2_tlb.walker.requestOrigin_Requested::total            0                       # Table walker requests started/completed, data/inst
system.cpu.itb.stage2_mmu.stage2_tlb.walker.requestOrigin_Completed::Data            0                       # Table walker requests started/completed, data/inst
system.cpu.itb.stage2_mmu.stage2_tlb.walker.requestOrigin_Completed::Inst            0                       # Table walker requests started/completed, data/inst
system.cpu.itb.stage2_mmu.stage2_tlb.walker.requestOrigin_Completed::total            0                       # Table walker requests started/completed, data/inst
system.cpu.itb.stage2_mmu.stage2_tlb.walker.requestOrigin::total            0                       # Table walker requests started/completed, data/inst
system.cpu.itb.stage2_mmu.stage2_tlb.walker.power_state.pwrStateResidencyTicks::UNDEFINED  57692373000                       # Cumulative time (in ticks) in various power states
system.cpu.itb.walker.walks                         0                       # Table walker walks requested
system.cpu.itb.walker.requestOrigin_Requested::Data            0                       # Table walker requests started/completed, data/inst
system.cpu.itb.walker.requestOrigin_Requested::Inst            0                       # Table walker requests started/completed, data/inst
system.cpu.itb.walker.requestOrigin_Requested::total            0                       # Table walker requests started/completed, data/inst
system.cpu.itb.walker.requestOrigin_Completed::Data            0                       # Table walker requests started/completed, data/inst
system.cpu.itb.walker.requestOrigin_Completed::Inst            0                       # Table walker requests started/completed, data/inst
system.cpu.itb.walker.requestOrigin_Completed::total            0                       # Table walker requests started/completed, data/inst
system.cpu.itb.walker.requestOrigin::total            0                       # Table walker requests started/completed, data/inst
system.cpu.itb.walker.power_state.pwrStateResidencyTicks::UNDEFINED  57692373000                       # Cumulative time (in ticks) in various power states
system.cpu.power_state.pwrStateResidencyTicks::ON  57692373000                       # Cumulative time (in ticks) in various power states
system.cpu.thread0.numInsts                 100000000                       # Number of Instructions committed
system.cpu.thread0.numOps                   109431273                       # Number of Ops committed
system.cpu.thread0.numMemRefs                       0                       # Number of Memory References
system.cpu_clk_domain.clock                       500                       # Clock period in ticks
system.cpu_voltage_domain.voltage                   1                       # Voltage in Volts
system.l2.demand_hits::.cpu.inst                  240                       # number of demand (read+write) hits
system.l2.demand_hits::.cpu.data                16146                       # number of demand (read+write) hits
system.l2.demand_hits::total                    16386                       # number of demand (read+write) hits
system.l2.overall_hits::.cpu.inst                 240                       # number of overall hits
system.l2.overall_hits::.cpu.data               16146                       # number of overall hits
system.l2.overall_hits::total                   16386                       # number of overall hits
system.l2.demand_misses::.cpu.inst                530                       # number of demand (read+write) misses
system.l2.demand_misses::.cpu.data              46150                       # number of demand (read+write) misses
system.l2.demand_misses::total                  46680                       # number of demand (read+write) misses
system.l2.overall_misses::.cpu.inst               530                       # number of overall misses
system.l2.overall_misses::.cpu.data             46150                       # number of overall misses
system.l2.overall_misses::total                 46680                       # number of overall misses
system.l2.demand_miss_latency::.cpu.inst     40360000                       # number of demand (read+write) miss cycles
system.l2.demand_miss_latency::.cpu.data   3933625500                       # number of demand (read+write) miss cycles
system.l2.demand_miss_latency::total       3973985500                       # number of demand (read+write) miss cycles
system.l2.overall_miss_latency::.cpu.inst     40360000                       # number of overall miss cycles
system.l2.overall_miss_latency::.cpu.data   3933625500                       # number of overall miss cycles
system.l2.overall_miss_latency::total      3973985500                       # number of overall miss cycles
system.l2.demand_accesses::.cpu.inst              770                       # number of demand (read+write) accesses
system.l2.demand_accesses::.cpu.data            62296                       # number of demand (read+write) accesses
system.l2.demand_accesses::total                63066                       # number of demand (read+write) accesses
system.l2.overall_accesses::.cpu.inst             770                       # number of overall (read+write) accesses
system.l2.overall_accesses::.cpu.data           62296                       # number of overall (read+write) accesses
system.l2.overall_accesses::total               63066                       # number of overall (read+write) accesses
system.l2.demand_miss_rate::.cpu.inst        0.688312                       # miss rate for demand accesses
system.l2.demand_miss_rate::.cpu.data        0.740818                       # miss rate for demand accesses
system.l2.demand_miss_rate::total            0.740177                       # miss rate for demand accesses
system.l2.overall_miss_rate::.cpu.inst       0.688312                       # miss rate for overall accesses
system.l2.overall_miss_rate::.cpu.data       0.740818                       # miss rate for overall accesses
system.l2.overall_miss_rate::total           0.740177                       # miss rate for overall accesses
system.l2.demand_avg_miss_latency::.cpu.inst 76150.943396                       # average overall miss latency
system.l2.demand_avg_miss_latency::.cpu.data 85235.655471                       # average overall miss latency
system.l2.demand_avg_miss_latency::total 85132.508569                       # average overall miss latency
system.l2.overall_avg_miss_latency::.cpu.inst 76150.943396                       # average overall miss latency
system.l2.overall_avg_miss_latency::.cpu.data 85235.655471                       # average overall miss latency
system.l2.overall_avg_miss_latency::total 85132.508569                       # average overall miss latency
system.l2.blocked_cycles::no_mshrs                  0                       # number of cycles access was blocked
system.l2.blocked_cycles::no_targets                0                       # number of cycles access was blocked
system.l2.blocked::no_mshrs                         0                       # number of cycles access was blocked
system.l2.blocked::no_targets                       0                       # number of cycles access was blocked
system.l2.avg_blocked_cycles::no_mshrs            nan                       # average number of cycles each access was blocked
system.l2.avg_blocked_cycles::no_targets          nan                       # average number of cycles each access was blocked
system.l2.writebacks::.writebacks               37650                       # number of writebacks
system.l2.writebacks::total                     37650                       # number of writebacks
system.l2.demand_mshr_hits::.cpu.inst               1                       # number of demand (read+write) MSHR hits
system.l2.demand_mshr_hits::.cpu.data               5                       # number of demand (read+write) MSHR hits
system.l2.demand_mshr_hits::total                   6                       # number of demand (read+write) MSHR hits
system.l2.overall_mshr_hits::.cpu.inst              1                       # number of overall MSHR hits
system.l2.overall_mshr_hits::.cpu.data              5                       # number of overall MSHR hits
system.l2.overall_mshr_hits::total                  6                       # number of overall MSHR hits
system.l2.demand_mshr_misses::.cpu.inst           529                       # number of demand (read+write) MSHR misses
system.l2.demand_mshr_misses::.cpu.data         46145                       # number of demand (read+write) MSHR misses
system.l2.demand_mshr_misses::total             46674                       # number of demand (read+write) MSHR misses
system.l2.overall_mshr_misses::.cpu.inst          529                       # number of overall MSHR misses
system.l2.overall_mshr_misses::.cpu.data        46145                       # number of overall MSHR misses
system.l2.overall_mshr_misses::total            46674                       # number of overall MSHR misses
system.l2.demand_mshr_miss_latency::.cpu.inst     34745500                       # number of demand (read+write) MSHR miss cycles
system.l2.demand_mshr_miss_latency::.cpu.data   3471850000                       # number of demand (read+write) MSHR miss cycles
system.l2.demand_mshr_miss_latency::total   3506595500                       # number of demand (read+write) MSHR miss cycles
system.l2.overall_mshr_miss_latency::.cpu.inst     34745500                       # number of overall MSHR miss cycles
system.l2.overall_mshr_miss_latency::.cpu.data   3471850000                       # number of overall MSHR miss cycles
system.l2.overall_mshr_miss_latency::total   3506595500                       # number of overall MSHR miss cycles
system.l2.demand_mshr_miss_rate::.cpu.inst     0.687013                       # mshr miss rate for demand accesses
system.l2.demand_mshr_miss_rate::.cpu.data     0.740738                       # mshr miss rate for demand accesses
system.l2.demand_mshr_miss_rate::total       0.740082                       # mshr miss rate for demand accesses
system.l2.overall_mshr_miss_rate::.cpu.inst     0.687013                       # mshr miss rate for overall accesses
system.l2.overall_mshr_miss_rate::.cpu.data     0.740738                       # mshr miss rate for overall accesses
system.l2.overall_mshr_miss_rate::total      0.740082                       # mshr miss rate for overall accesses
system.l2.demand_avg_mshr_miss_latency::.cpu.inst 65681.474480                       # average overall mshr miss latency
system.l2.demand_avg_mshr_miss_latency::.cpu.data 75237.837252                       # average overall mshr miss latency
system.l2.demand_avg_mshr_miss_latency::total 75129.526074                       # average overall mshr miss latency
system.l2.overall_avg_mshr_miss_latency::.cpu.inst 65681.474480                       # average overall mshr miss latency
system.l2.overall_avg_mshr_miss_latency::.cpu.data 75237.837252                       # average overall mshr miss latency
system.l2.overall_avg_mshr_miss_latency::total 75129.526074                       # average overall mshr miss latency
system.l2.replacements                          39695                       # number of replacements
system.l2.WritebackDirty_hits::.writebacks        52568                       # number of WritebackDirty hits
system.l2.WritebackDirty_hits::total            52568                       # number of WritebackDirty hits
system.l2.WritebackDirty_accesses::.writebacks        52568                       # number of WritebackDirty accesses(hits+misses)
system.l2.WritebackDirty_accesses::total        52568                       # number of WritebackDirty accesses(hits+misses)
system.l2.WritebackClean_hits::.writebacks          310                       # number of WritebackClean hits
system.l2.WritebackClean_hits::total              310                       # number of WritebackClean hits
system.l2.WritebackClean_accesses::.writebacks          310                       # number of WritebackClean accesses(hits+misses)
system.l2.WritebackClean_accesses::total          310                       # number of WritebackClean accesses(hits+misses)
system.l2.CleanEvict_mshr_misses::.writebacks          178                       # number of CleanEvict MSHR misses
system.l2.CleanEvict_mshr_misses::total           178                       # number of CleanEvict MSHR misses
system.l2.CleanEvict_mshr_miss_rate::.writebacks          inf                       # mshr miss rate for CleanEvict accesses
system.l2.CleanEvict_mshr_miss_rate::total          inf                       # mshr miss rate for CleanEvict accesses
system.l2.ReadExReq_hits::.cpu.data              2131                       # number of ReadExReq hits
system.l2.ReadExReq_hits::total                  2131                       # number of ReadExReq hits
system.l2.ReadExReq_misses::.cpu.data           38810                       # number of ReadExReq misses
system.l2.ReadExReq_misses::total               38810                       # number of ReadExReq misses
system.l2.ReadExReq_miss_latency::.cpu.data   3256941000                       # number of ReadExReq miss cycles
system.l2.ReadExReq_miss_latency::total    3256941000                       # number of ReadExReq miss cycles
system.l2.ReadExReq_accesses::.cpu.data         40941                       # number of ReadExReq accesses(hits+misses)
system.l2.ReadExReq_accesses::total             40941                       # number of ReadExReq accesses(hits+misses)
system.l2.ReadExReq_miss_rate::.cpu.data     0.947949                       # miss rate for ReadExReq accesses
system.l2.ReadExReq_miss_rate::total         0.947949                       # miss rate for ReadExReq accesses
system.l2.ReadExReq_avg_miss_latency::.cpu.data 83920.149446                       # average ReadExReq miss latency
system.l2.ReadExReq_avg_miss_latency::total 83920.149446                       # average ReadExReq miss latency
system.l2.ReadExReq_mshr_misses::.cpu.data        38810                       # number of ReadExReq MSHR misses
system.l2.ReadExReq_mshr_misses::total          38810                       # number of ReadExReq MSHR misses
system.l2.ReadExReq_mshr_miss_latency::.cpu.data   2868841000                       # number of ReadExReq MSHR miss cycles
system.l2.ReadExReq_mshr_miss_latency::total   2868841000                       # number of ReadExReq MSHR miss cycles
system.l2.ReadExReq_mshr_miss_rate::.cpu.data     0.947949                       # mshr miss rate for ReadExReq accesses
system.l2.ReadExReq_mshr_miss_rate::total     0.947949                       # mshr miss rate for ReadExReq accesses
system.l2.ReadExReq_avg_mshr_miss_latency::.cpu.data 73920.149446                       # average ReadExReq mshr miss latency
system.l2.ReadExReq_avg_mshr_miss_latency::total 73920.149446                       # average ReadExReq mshr miss latency
system.l2.ReadCleanReq_hits::.cpu.inst            240                       # number of ReadCleanReq hits
system.l2.ReadCleanReq_hits::total                240                       # number of ReadCleanReq hits
system.l2.ReadCleanReq_misses::.cpu.inst          530                       # number of ReadCleanReq misses
system.l2.ReadCleanReq_misses::total              530                       # number of ReadCleanReq misses
system.l2.ReadCleanReq_miss_latency::.cpu.inst     40360000                       # number of ReadCleanReq miss cycles
system.l2.ReadCleanReq_miss_latency::total     40360000                       # number of ReadCleanReq miss cycles
system.l2.ReadCleanReq_accesses::.cpu.inst          770                       # number of ReadCleanReq accesses(hits+misses)
system.l2.ReadCleanReq_accesses::total            770                       # number of ReadCleanReq accesses(hits+misses)
system.l2.ReadCleanReq_miss_rate::.cpu.inst     0.688312                       # miss rate for ReadCleanReq accesses
system.l2.ReadCleanReq_miss_rate::total      0.688312                       # miss rate for ReadCleanReq accesses
system.l2.ReadCleanReq_avg_miss_latency::.cpu.inst 76150.943396                       # average ReadCleanReq miss latency
system.l2.ReadCleanReq_avg_miss_latency::total 76150.943396                       # average ReadCleanReq miss latency
system.l2.ReadCleanReq_mshr_hits::.cpu.inst            1                       # number of ReadCleanReq MSHR hits
system.l2.ReadCleanReq_mshr_hits::total             1                       # number of ReadCleanReq MSHR hits
system.l2.ReadCleanReq_mshr_misses::.cpu.inst          529                       # number of ReadCleanReq MSHR misses
system.l2.ReadCleanReq_mshr_misses::total          529                       # number of ReadCleanReq MSHR misses
system.l2.ReadCleanReq_mshr_miss_latency::.cpu.inst     34745500                       # number of ReadCleanReq MSHR miss cycles
system.l2.ReadCleanReq_mshr_miss_latency::total     34745500                       # number of ReadCleanReq MSHR miss cycles
system.l2.ReadCleanReq_mshr_miss_rate::.cpu.inst     0.687013                       # mshr miss rate for ReadCleanReq accesses
system.l2.ReadCleanReq_mshr_miss_rate::total     0.687013                       # mshr miss rate for ReadCleanReq accesses
system.l2.ReadCleanReq_avg_mshr_miss_latency::.cpu.inst 65681.474480                       # average ReadCleanReq mshr miss latency
system.l2.ReadCleanReq_avg_mshr_miss_latency::total 65681.474480                       # average ReadCleanReq mshr miss latency
system.l2.ReadSharedReq_hits::.cpu.data         14015                       # number of ReadSharedReq hits
system.l2.ReadSharedReq_hits::total             14015                       # number of ReadSharedReq hits
system.l2.ReadSharedReq_misses::.cpu.data         7340                       # number of ReadSharedReq misses
system.l2.ReadSharedReq_misses::total            7340                       # number of ReadSharedReq misses
system.l2.ReadSharedReq_miss_latency::.cpu.data    676684500                       # number of ReadSharedReq miss cycles
system.l2.ReadSharedReq_miss_latency::total    676684500                       # number of ReadSharedReq miss cycles
system.l2.ReadSharedReq_accesses::.cpu.data        21355                       # number of ReadSharedReq accesses(hits+misses)
system.l2.ReadSharedReq_accesses::total         21355                       # number of ReadSharedReq accesses(hits+misses)
system.l2.ReadSharedReq_miss_rate::.cpu.data     0.343713                       # miss rate for ReadSharedReq accesses
system.l2.ReadSharedReq_miss_rate::total     0.343713                       # miss rate for ReadSharedReq accesses
system.l2.ReadSharedReq_avg_miss_latency::.cpu.data 92191.348774                       # average ReadSharedReq miss latency
system.l2.ReadSharedReq_avg_miss_latency::total 92191.348774                       # average ReadSharedReq miss latency
system.l2.ReadSharedReq_mshr_hits::.cpu.data            5                       # number of ReadSharedReq MSHR hits
system.l2.ReadSharedReq_mshr_hits::total            5                       # number of ReadSharedReq MSHR hits
system.l2.ReadSharedReq_mshr_misses::.cpu.data         7335                       # number of ReadSharedReq MSHR misses
system.l2.ReadSharedReq_mshr_misses::total         7335                       # number of ReadSharedReq MSHR misses
system.l2.ReadSharedReq_mshr_miss_latency::.cpu.data    603009000                       # number of ReadSharedReq MSHR miss cycles
system.l2.ReadSharedReq_mshr_miss_latency::total    603009000                       # number of ReadSharedReq MSHR miss cycles
system.l2.ReadSharedReq_mshr_miss_rate::.cpu.data     0.343479                       # mshr miss rate for ReadSharedReq accesses
system.l2.ReadSharedReq_mshr_miss_rate::total     0.343479                       # mshr miss rate for ReadSharedReq accesses
system.l2.ReadSharedReq_avg_mshr_miss_latency::.cpu.data 82209.815951                       # average ReadSharedReq mshr miss latency
system.l2.ReadSharedReq_avg_mshr_miss_latency::total 82209.815951                       # average ReadSharedReq mshr miss latency
system.l2.power_state.pwrStateResidencyTicks::UNDEFINED  57692373000                       # Cumulative time (in ticks) in various power states
system.l2.tags.tagsinuse                  7995.459716                       # Cycle average of tags in use
system.l2.tags.total_refs                      122289                       # Total number of references to valid blocks.
system.l2.tags.sampled_refs                     47887                       # Sample count of references to valid blocks.
system.l2.tags.avg_refs                      2.553699                       # Average number of references to valid blocks.
system.l2.tags.warmup_cycle                     77000                       # Cycle when the warmup percentage was hit.
system.l2.tags.occ_blocks::.writebacks     150.591456                       # Average occupied blocks per requestor
system.l2.tags.occ_blocks::.cpu.inst        25.056830                       # Average occupied blocks per requestor
system.l2.tags.occ_blocks::.cpu.data      7819.811430                       # Average occupied blocks per requestor
system.l2.tags.occ_percent::.writebacks      0.018383                       # Average percentage of cache occupancy
system.l2.tags.occ_percent::.cpu.inst        0.003059                       # Average percentage of cache occupancy
system.l2.tags.occ_percent::.cpu.data        0.954567                       # Average percentage of cache occupancy
system.l2.tags.occ_percent::total            0.976008                       # Average percentage of cache occupancy
system.l2.tags.occ_task_id_blocks::1024          8192                       # Occupied blocks per task id
system.l2.tags.age_task_id_blocks_1024::0            3                       # Occupied blocks per task id
system.l2.tags.age_task_id_blocks_1024::1           36                       # Occupied blocks per task id
system.l2.tags.age_task_id_blocks_1024::2          596                       # Occupied blocks per task id
system.l2.tags.age_task_id_blocks_1024::3         4505                       # Occupied blocks per task id
system.l2.tags.age_task_id_blocks_1024::4         3052                       # Occupied blocks per task id
system.l2.tags.occ_task_id_percent::1024            1                       # Percentage of cache occupancy per task id
system.l2.tags.tag_accesses                    292833                       # Number of tag accesses
system.l2.tags.data_accesses                   292833                       # Number of data accesses
system.l2.tags.power_state.pwrStateResidencyTicks::UNDEFINED  57692373000                       # Cumulative time (in ticks) in various power states
system.mem_ctrls.avgPriority_.writebacks::samples     37650.00                       # Average QoS priority value for accepted requests
system.mem_ctrls.avgPriority_.cpu.inst::samples       529.00                       # Average QoS priority value for accepted requests
system.mem_ctrls.avgPriority_.cpu.data::samples     46121.00                       # Average QoS priority value for accepted requests
system.mem_ctrls.priorityMinLatency      0.000000018750                       # per QoS priority minimum request to response latency (s)
system.mem_ctrls.priorityMaxLatency      0.003097583750                       # per QoS priority maximum request to response latency (s)
system.mem_ctrls.numReadWriteTurnArounds         2112                       # Number of turnarounds from READ to WRITE
system.mem_ctrls.numWriteReadTurnArounds         2112                       # Number of turnarounds from WRITE to READ
system.mem_ctrls.numStayReadState              145175                       # Number of times bus staying in READ state
system.mem_ctrls.numStayWriteState              35546                       # Number of times bus staying in WRITE state
system.mem_ctrls.readReqs                       46674                       # Number of read requests accepted
system.mem_ctrls.writeReqs                      37650                       # Number of write requests accepted
system.mem_ctrls.readBursts                     46674                       # Number of controller read bursts, including those serviced by the write queue
system.mem_ctrls.writeBursts                    37650                       # Number of controller write bursts, including those merged in the write queue
system.mem_ctrls.servicedByWrQ                     24                       # Number of controller read bursts serviced by the write queue
system.mem_ctrls.mergedWrBursts                     0                       # Number of controller write bursts merged with an existing one
system.mem_ctrls.neitherReadNorWriteReqs            0                       # Number of requests that are neither read nor write
system.mem_ctrls.avgRdQLen                       1.08                       # Average read queue length when enqueuing
system.mem_ctrls.avgWrQLen                      23.61                       # Average write queue length when enqueuing
system.mem_ctrls.numRdRetry                         0                       # Number of times read queue was full causing retry
[...]
system.mem_ctrls.dram.bw_write::.writebacks     41766353                       # Write bandwidth from this memory (bytes/s)
system.mem_ctrls.dram.bw_write::total        41766353                       # Write bandwidth from this memory (bytes/s)
system.mem_ctrls.dram.bw_total::.writebacks     41766353                       # Total bandwidth to/from this memory (bytes/s)
system.mem_ctrls.dram.bw_total::.cpu.inst       586837                       # Total bandwidth to/from this memory (bytes/s)
system.mem_ctrls.dram.bw_total::.cpu.data     51190129                       # Total bandwidth to/from this memory (bytes/s)
system.mem_ctrls.dram.bw_total::total        93543318                       # Total bandwidth to/from this memory (bytes/s)
system.mem_ctrls.dram.readBursts                46650                       # Number of DRAM read bursts
system.mem_ctrls.dram.writeBursts               37624                       # Number of DRAM write bursts
system.mem_ctrls.dram.perBankRdBursts::0         2962                       # Per bank write bursts
system.mem_ctrls.dram.perBankRdBursts::1         2831                       # Per bank write bursts
system.mem_ctrls.dram.perBankRdBursts::2         2890                       # Per bank write bursts
system.mem_ctrls.dram.perBankRdBursts::3         3013                       # Per bank write bursts
system.mem_ctrls.dram.perBankRdBursts::4         3096                       # Per bank write bursts
system.mem_ctrls.dram.perBankRdBursts::5         2739                       # Per bank write bursts
system.mem_ctrls.dram.perBankRdBursts::6         2870                       # Per bank write bursts
system.mem_ctrls.dram.perBankRdBursts::7         3020                       # Per bank write bursts
system.mem_ctrls.dram.perBankRdBursts::8         2855                       # Per bank write bursts
system.mem_ctrls.dram.perBankRdBursts::9         2894                       # Per bank write bursts
system.mem_ctrls.dram.perBankRdBursts::10         2987                       # Per bank write bursts
system.mem_ctrls.dram.perBankRdBursts::11         2900                       # Per bank write bursts
system.mem_ctrls.dram.perBankRdBursts::12         2889                       # Per bank write bursts
system.mem_ctrls.dram.perBankRdBursts::13         2941                       # Per bank write bursts
system.mem_ctrls.dram.perBankRdBursts::14         2889                       # Per bank write bursts
system.mem_ctrls.dram.perBankRdBursts::15         2874                       # Per bank write bursts
system.mem_ctrls.dram.perBankWrBursts::0         2405                       # Per bank write bursts
system.mem_ctrls.dram.perBankWrBursts::1         2281                       # Per bank write bursts
system.mem_ctrls.dram.perBankWrBursts::2         2356                       # Per bank write bursts
system.mem_ctrls.dram.perBankWrBursts::3         2364                       # Per bank write bursts
system.mem_ctrls.dram.perBankWrBursts::4         2384                       # Per bank write bursts
system.mem_ctrls.dram.perBankWrBursts::5         2224                       # Per bank write bursts
system.mem_ctrls.dram.perBankWrBursts::6         2361                       # Per bank write bursts
system.mem_ctrls.dram.perBankWrBursts::7         2484                       # Per bank write bursts
system.mem_ctrls.dram.perBankWrBursts::8         2307                       # Per bank write bursts
system.mem_ctrls.dram.perBankWrBursts::9         2329                       # Per bank write bursts
system.mem_ctrls.dram.perBankWrBursts::10         2434                       # Per bank write bursts
system.mem_ctrls.dram.perBankWrBursts::11         2325                       # Per bank write bursts
system.mem_ctrls.dram.perBankWrBursts::12         2331                       # Per bank write bursts
system.mem_ctrls.dram.perBankWrBursts::13         2403                       # Per bank write bursts
system.mem_ctrls.dram.perBankWrBursts::14         2305                       # Per bank write bursts
system.mem_ctrls.dram.perBankWrBursts::15         2331                       # Per bank write bursts
system.mem_ctrls.dram.totQLat               713436750                       # Total ticks spent queuing
system.mem_ctrls.dram.totBusLat             233250000                       # Total ticks spent in databus transfers
system.mem_ctrls.dram.totMemAccLat         1588124250                       # Total ticks spent from burst creation until serviced by the DRAM
system.mem_ctrls.dram.avgQLat                15293.39                       # Average queueing delay per DRAM burst
system.mem_ctrls.dram.avgBusLat               5000.00                       # Average bus latency per DRAM burst
system.mem_ctrls.dram.avgMemAccLat           34043.39                       # Average memory access latency per DRAM burst
system.mem_ctrls.dram.readRowHits               28652                       # Number of row buffer hits during reads
system.mem_ctrls.dram.writeRowHits              27325                       # Number of row buffer hits during writes
system.mem_ctrls.dram.readRowHitRate            61.42                       # Row buffer hit rate for reads
system.mem_ctrls.dram.writeRowHitRate           72.63                       # Row buffer hit rate for writes
system.mem_ctrls.dram.bytesPerActivate::samples        28296                       # Bytes accessed per row activation
system.mem_ctrls.dram.bytesPerActivate::mean   190.608991                       # Bytes accessed per row activation
system.mem_ctrls.dram.bytesPerActivate::gmean   126.622477                       # Bytes accessed per row activation
system.mem_ctrls.dram.bytesPerActivate::stdev   219.186659                       # Bytes accessed per row activation
system.mem_ctrls.dram.bytesPerActivate::0-127        14245     50.34%     50.34% # Bytes accessed per row activation
system.mem_ctrls.dram.bytesPerActivate::128-255         8817     31.16%     81.50% # Bytes accessed per row activation
system.mem_ctrls.dram.bytesPerActivate::256-383         1497      5.29%     86.79% # Bytes accessed per row activation
system.mem_ctrls.dram.bytesPerActivate::384-511          931      3.29%     90.08% # Bytes accessed per row activation
system.mem_ctrls.dram.bytesPerActivate::512-639          730      2.58%     92.66% # Bytes accessed per row activation
system.mem_ctrls.dram.bytesPerActivate::640-767          583      2.06%     94.72% # Bytes accessed per row activation
system.mem_ctrls.dram.bytesPerActivate::768-895          431      1.52%     96.25% # Bytes accessed per row activation
system.mem_ctrls.dram.bytesPerActivate::896-1023          443      1.57%     97.81% # Bytes accessed per row activation
system.mem_ctrls.dram.bytesPerActivate::1024-1151          619      2.19%    100.00% # Bytes accessed per row activation
system.mem_ctrls.dram.bytesPerActivate::total        28296                       # Bytes accessed per row activation
system.mem_ctrls.dram.bytesRead               2985600                       # Total number of bytes read from DRAM
system.mem_ctrls.dram.bytesWritten            2407936                       # Total number of bytes written to DRAM
system.mem_ctrls.dram.avgRdBW               51.750341                       # Average DRAM read bandwidth in MiBytes/s
system.mem_ctrls.dram.avgWrBW               41.737510                       # Average DRAM write bandwidth in MiBytes/s
system.mem_ctrls.dram.peakBW                 12800.00                       # Theoretical peak bandwidth in MiByte/s
system.mem_ctrls.dram.busUtil                    0.73                       # Data bus utilization in percentage
system.mem_ctrls.dram.busUtilRead                0.40                       # Data bus utilization in percentage for reads
system.mem_ctrls.dram.busUtilWrite               0.33                       # Data bus utilization in percentage for writes
system.mem_ctrls.dram.pageHitRate               66.42                       # Row buffer hit rate, read and write combined
system.mem_ctrls.dram.power_state.pwrStateResidencyTicks::UNDEFINED  57692373000                       # Cumulative time (in ticks) in various power states
system.mem_ctrls.dram.rank0.actEnergy       103979820                       # Energy for activate commands per rank (pJ)
system.mem_ctrls.dram.rank0.preEnergy        55262790                       # Energy for precharge commands per rank (pJ)
system.mem_ctrls.dram.rank0.readEnergy      167225940                       # Energy for read commands per rank (pJ)
system.mem_ctrls.dram.rank0.writeEnergy      98443980                       # Energy for write commands per rank (pJ)
system.mem_ctrls.dram.rank0.refreshEnergy 4553867760.000001                       # Energy for refresh commands per rank (pJ)
system.mem_ctrls.dram.rank0.actBackEnergy  15838259400                       # Energy for active background per rank (pJ)
system.mem_ctrls.dram.rank0.preBackEnergy   8816389920                       # Energy for precharge background per rank (pJ)
system.mem_ctrls.dram.rank0.actPowerDownEnergy            0                       # Energy for active power-down per rank (pJ)
system.mem_ctrls.dram.rank0.prePowerDownEnergy            0                       # Energy for precharge power-down per rank (pJ)
system.mem_ctrls.dram.rank0.selfRefreshEnergy            0                       # Energy for self refresh per rank (pJ)
system.mem_ctrls.dram.rank0.totalEnergy   29633429610                       # Total energy per rank (pJ)
system.mem_ctrls.dram.rank0.averagePower   513.645532                       # Core power per rank (mW)
system.mem_ctrls.dram.rank0.totalIdleTime            0                       # Total Idle time Per DRAM Rank
system.mem_ctrls.dram.rank0.pwrStateTime::IDLE  22774229750                       # Time in different power states
system.mem_ctrls.dram.rank0.pwrStateTime::REF   1926340000                       # Time in different power states
system.mem_ctrls.dram.rank0.pwrStateTime::SREF            0                       # Time in different power states
system.mem_ctrls.dram.rank0.pwrStateTime::PRE_PDN            0                       # Time in different power states
system.mem_ctrls.dram.rank0.pwrStateTime::ACT  32991803250                       # Time in different power states
system.mem_ctrls.dram.rank0.pwrStateTime::ACT_PDN            0                       # Time in different power states
system.mem_ctrls.dram.rank1.actEnergy        98060760                       # Energy for activate commands per rank (pJ)
system.mem_ctrls.dram.rank1.preEnergy        52120530                       # Energy for precharge commands per rank (pJ)
system.mem_ctrls.dram.rank1.readEnergy      165855060                       # Energy for read commands per rank (pJ)
system.mem_ctrls.dram.rank1.writeEnergy      97953300                       # Energy for write commands per rank (pJ)
system.mem_ctrls.dram.rank1.refreshEnergy 4553867760.000001                       # Energy for refresh commands per rank (pJ)
system.mem_ctrls.dram.rank1.actBackEnergy  16128777000                       # Energy for active background per rank (pJ)
system.mem_ctrls.dram.rank1.preBackEnergy   8571743520                       # Energy for precharge background per rank (pJ)
system.mem_ctrls.dram.rank1.actPowerDownEnergy            0                       # Energy for active power-down per rank (pJ)
system.mem_ctrls.dram.rank1.prePowerDownEnergy            0                       # Energy for precharge power-down per rank (pJ)
system.mem_ctrls.dram.rank1.selfRefreshEnergy            0                       # Energy for self refresh per rank (pJ)
system.mem_ctrls.dram.rank1.totalEnergy   29668377930                       # Total energy per rank (pJ)
system.mem_ctrls.dram.rank1.averagePower   514.251302                       # Core power per rank (mW)
system.mem_ctrls.dram.rank1.totalIdleTime            0                       # Total Idle time Per DRAM Rank
system.mem_ctrls.dram.rank1.pwrStateTime::IDLE  22134072250                       # Time in different power states
system.mem_ctrls.dram.rank1.pwrStateTime::REF   1926340000                       # Time in different power states
system.mem_ctrls.dram.rank1.pwrStateTime::SREF            0                       # Time in different power states
system.mem_ctrls.dram.rank1.pwrStateTime::PRE_PDN            0                       # Time in different power states
system.mem_ctrls.dram.rank1.pwrStateTime::ACT  33631960750                       # Time in different power states
system.mem_ctrls.dram.rank1.pwrStateTime::ACT_PDN            0                       # Time in different power states
system.mem_ctrls.power_state.pwrStateResidencyTicks::UNDEFINED  57692373000                       # Cumulative time (in ticks) in various power states
system.membus.trans_dist::ReadResp               7864                       # Transaction distribution
system.membus.trans_dist::WritebackDirty        37650                       # Transaction distribution
system.membus.trans_dist::CleanEvict              358                       # Transaction distribution
system.membus.trans_dist::ReadExReq             38810                       # Transaction distribution
system.membus.trans_dist::ReadExResp            38810                       # Transaction distribution
system.membus.trans_dist::ReadSharedReq          7864                       # Transaction distribution
system.membus.pkt_count_system.l2.mem_side_port::system.mem_ctrls.port       131356                       # Packet count per connected requestor and responder (bytes)
system.membus.pkt_count::total                 131356                       # Packet count per connected requestor and responder (bytes)
system.membus.pkt_size_system.l2.mem_side_port::system.mem_ctrls.port      5396736                       # Cumulative packet size per connected requestor and responder (bytes)
system.membus.pkt_size::total                 5396736                       # Cumulative packet size per connected requestor and responder (bytes)
system.membus.snoops                                0                       # Total snoops (count)
system.membus.snoopTraffic                          0                       # Total snoop traffic (bytes)
system.membus.snoop_fanout::samples             46674                       # Request fanout histogram
system.membus.snoop_fanout::mean                    0                       # Request fanout histogram
system.membus.snoop_fanout::stdev                   0                       # Request fanout histogram
system.membus.snoop_fanout::underflows              0      0.00%      0.00% # Request fanout histogram
system.membus.snoop_fanout::0                   46674    100.00%    100.00% # Request fanout histogram
system.membus.snoop_fanout::1                       0      0.00%    100.00% # Request fanout histogram
system.membus.snoop_fanout::overflows               0      0.00%    100.00% # Request fanout histogram
system.membus.snoop_fanout::min_value               0                       # Request fanout histogram
system.membus.snoop_fanout::max_value               0                       # Request fanout histogram
system.membus.snoop_fanout::total               46674                       # Request fanout histogram
system.membus.power_state.pwrStateResidencyTicks::UNDEFINED  57692373000                       # Cumulative time (in ticks) in various power states
system.membus.reqLayer0.occupancy           247334500                       # Layer occupancy (ticks)
system.membus.reqLayer0.utilization               0.4                       # Layer utilization (%)
system.membus.respLayer1.occupancy          249658500                       # Layer occupancy (ticks)
system.membus.respLayer1.utilization              0.4                       # Layer utilization (%)
system.tol2bus.trans_dist::ReadResp             22125                       # Transaction distribution
system.tol2bus.trans_dist::WritebackDirty        90218                       # Transaction distribution
system.tol2bus.trans_dist::WritebackClean          314                       # Transaction distribution
system.tol2bus.trans_dist::CleanEvict            9725                       # Transaction distribution
system.tol2bus.trans_dist::ReadExReq            40941                       # Transaction distribution
system.tol2bus.trans_dist::ReadExResp           40941                       # Transaction distribution
system.tol2bus.trans_dist::ReadCleanReq           770                       # Transaction distribution
system.tol2bus.trans_dist::ReadSharedReq        21355                       # Transaction distribution
system.tol2bus.pkt_count_system.cpu.icache.mem_side_port::system.l2.cpu_side_port         1854                       # Packet count per connected requestor and responder (bytes)
system.tol2bus.pkt_count_system.cpu.dcache.mem_side_port::system.l2.cpu_side_port       184840                       # Packet count per connected requestor and responder (bytes)
system.tol2bus.pkt_count::total                186694                       # Packet count per connected requestor and responder (bytes)
system.tol2bus.pkt_size_system.cpu.icache.mem_side_port::system.l2.cpu_side_port        69376                       # Cumulative packet size per connected requestor and responder (bytes)
system.tol2bus.pkt_size_system.cpu.dcache.mem_side_port::system.l2.cpu_side_port      7351296                       # Cumulative packet size per connected requestor and responder (bytes)
system.tol2bus.pkt_size::total                7420672                       # Cumulative packet size per connected requestor and responder (bytes)
system.tol2bus.snoops                           39695                       # Total snoops (count)
system.tol2bus.snoopTraffic                   2409600                       # Total snoop traffic (bytes)
system.tol2bus.snoop_fanout::samples           102761                       # Request fanout histogram
system.tol2bus.snoop_fanout::mean            0.029651                       # Request fanout histogram
system.tol2bus.snoop_fanout::stdev           0.170939                       # Request fanout histogram
system.tol2bus.snoop_fanout::underflows             0      0.00%      0.00% # Request fanout histogram
system.tol2bus.snoop_fanout::0                  99737     97.06%     97.06% # Request fanout histogram
system.tol2bus.snoop_fanout::1                   3001      2.92%     99.98% # Request fanout histogram
system.tol2bus.snoop_fanout::2                     23      0.02%    100.00% # Request fanout histogram
system.tol2bus.snoop_fanout::overflows              0      0.00%    100.00% # Request fanout histogram
system.tol2bus.snoop_fanout::min_value              0                       # Request fanout histogram
system.tol2bus.snoop_fanout::max_value              2                       # Request fanout histogram
system.tol2bus.snoop_fanout::total             102761                       # Request fanout histogram
system.tol2bus.power_state.pwrStateResidencyTicks::UNDEFINED  57692373000                       # Cumulative time (in ticks) in various power states
system.tol2bus.reqLayer0.occupancy          114696000                       # Layer occupancy (ticks)
system.tol2bus.reqLayer0.utilization              0.2                       # Layer utilization (%)
system.tol2bus.respLayer0.occupancy           1155499                       # Layer occupancy (ticks)
system.tol2bus.respLayer0.utilization             0.0                       # Layer utilization (%)
system.tol2bus.respLayer1.occupancy          93446495                       # Layer occupancy (ticks)
system.tol2bus.respLayer1.utilization             0.2                       # Layer utilization (%)
system.voltage_domain.voltage                       1                       # Voltage in Volts

---------- End Simulation Statistics   ----------
