
---------- Begin Simulation Statistics ----------
final_tick                                79195709500                       # Number of ticks from beginning of simulation (restored from checkpoints and never reset)
host_inst_rate                                 202454                       # Simulator instruction rate (inst/s)
host_mem_usage                                 659464                       # Number of bytes of host memory used
host_op_rate                                   202851                       # Simulator op (including micro ops) rate (op/s)
host_seconds                                   493.94                       # Real time elapsed on the host
host_tick_rate                              160334614                       # Simulator tick rate (ticks/s)
sim_freq                                 1000000000000                       # Frequency of simulated ticks
sim_insts                                   100000001                       # Number of instructions simulated
sim_ops                                     100196356                       # Number of ops (including micro ops) simulated
sim_seconds                                  0.079196                       # Number of seconds simulated
sim_ticks                                 79195709500                       # Number of ticks simulated
system.cpu.committedInsts                   100000001                       # Number of instructions committed
system.cpu.committedOps                     100196356                       # Number of ops (including micro ops) committed
system.cpu.cpi                               1.583914                       # CPI: cycles per instruction
system.cpu.discardedOps                        191068                       # Number of ops (including micro ops) which were discarded before commit
system.cpu.idleCycles                        26193939                       # Total number of cycles that the object has spent stopped
system.cpu.ipc                               0.631347                       # IPC: instructions per cycle
system.cpu.numCycles                        158391419                       # number of cpu cycles simulated
system.cpu.numFetchSuspends                         0                       # Number of times Execute suspended instruction fetching
system.cpu.numWorkItemsCompleted                    0                       # number of work items this cpu completed
system.cpu.numWorkItemsStarted                      0                       # number of work items this cpu started
system.cpu.op_class_0::No_OpClass                   0      0.00%      0.00% # Class of committed instruction
system.cpu.op_class_0::IntAlu                46526863     46.44%     46.44% # Class of committed instruction
system.cpu.op_class_0::IntMult                  20723      0.02%     46.46% # Class of committed instruction
system.cpu.op_class_0::IntDiv                       0      0.00%     46.46% # Class of committed instruction
system.cpu.op_class_0::FloatAdd                     0      0.00%     46.46% # Class of committed instruction
system.cpu.op_class_0::FloatCmp                     0      0.00%     46.46% # Class of committed instruction
system.cpu.op_class_0::FloatCvt                     0      0.00%     46.46% # Class of committed instruction
system.cpu.op_class_0::FloatMult                    0      0.00%     46.46% # Class of committed instruction
system.cpu.op_class_0::FloatMultAcc                 0      0.00%     46.46% # Class of committed instruction
system.cpu.op_class_0::FloatDiv                     0      0.00%     46.46% # Class of committed instruction
system.cpu.op_class_0::FloatMisc                    0      0.00%     46.46% # Class of committed instruction
system.cpu.op_class_0::FloatSqrt                    0      0.00%     46.46% # Class of committed instruction
system.cpu.op_class_0::SimdAdd                      0      0.00%     46.46% # Class of committed instruction
system.cpu.op_class_0::SimdAddAcc                   0      0.00%     46.46% # Class of committed instruction
system.cpu.op_class_0::SimdAlu                      0      0.00%     46.46% # Class of committed instruction
system.cpu.op_class_0::SimdCmp                      0      0.00%     46.46% # Class of committed instruction
system.cpu.op_class_0::SimdCvt                      0      0.00%     46.46% # Class of committed instruction
system.cpu.op_class_0::SimdMisc                     0      0.00%     46.46% # Class of committed instruction
system.cpu.op_class_0::SimdMult                     0      0.00%     46.46% # Class of committed instruction
system.cpu.op_class_0::SimdMultAcc                  0      0.00%     46.46% # Class of committed instruction
system.cpu.op_class_0::SimdShift                    0      0.00%     46.46% # Class of committed instruction
system.cpu.op_class_0::SimdShiftAcc                 0      0.00%     46.46% # Class of committed instruction
system.cpu.op_class_0::SimdDiv                      0      0.00%     46.46% # Class of committed instruction
system.cpu.op_class_0::SimdSqrt                     0      0.00%     46.46% # Class of committed instruction
system.cpu.op_class_0::SimdFloatAdd                 0      0.00%     46.46% # Class of committed instruction
system.cpu.op_class_0::SimdFloatAlu                 0      0.00%     46.46% # Class of committed instruction
system.cpu.op_class_0::SimdFloatCmp                 0      0.00%     46.46% # Class of committed instruction
system.cpu.op_class_0::SimdFloatCvt                 0      0.00%     46.46% # Class of committed instruction
system.cpu.op_class_0::SimdFloatDiv                 0      0.00%     46.46% # Class of committed instruction
system.cpu.op_class_0::SimdFloatMisc               18      0.00%     46.46% # Class of committed instruction
system.cpu.op_class_0::SimdFloatMult                0      0.00%     46.46% # Class of committed instruction
system.cpu.op_class_0::SimdFloatMultAcc             0      0.00%     46.46% # Class of committed instruction
system.cpu.op_class_0::SimdFloatSqrt                0      0.00%     46.46% # Class of committed instruction
system.cpu.op_class_0::SimdReduceAdd                0      0.00%     46.46% # Class of committed instruction
system.cpu.op_class_0::SimdReduceAlu                0      0.00%     46.46% # Class of committed instruction
system.cpu.op_class_0::SimdReduceCmp                0      0.00%     46.46% # Class of committed instruction
system.cpu.op_class_0::SimdFloatReduceAdd            0      0.00%     46.46% # Class of committed instruction
system.cpu.op_class_0::SimdFloatReduceCmp            0      0.00%     46.46% # Class of committed instruction
system.cpu.op_class_0::SimdAes                      0      0.00%     46.46% # Class of committed instruction
system.cpu.op_class_0::SimdAesMix                   0      0.00%     46.46% # Class of committed instruction
system.cpu.op_class_0::SimdSha1Hash                 0      0.00%     46.46% # Class of committed instruction
system.cpu.op_class_0::SimdSha1Hash2                0      0.00%     46.46% # Class of committed instruction
system.cpu.op_class_0::SimdSha256Hash               0      0.00%     46.46% # Class of committed instruction
system.cpu.op_class_0::SimdSha256Hash2              0      0.00%     46.46% # Class of committed instruction
system.cpu.op_class_0::SimdShaSigma2                0      0.00%     46.46% # Class of committed instruction
system.cpu.op_class_0::SimdShaSigma3                0      0.00%     46.46% # Class of committed instruction
system.cpu.op_class_0::SimdPredAlu                  0      0.00%     46.46% # Class of committed instruction
system.cpu.op_class_0::MemRead               42690537     42.61%     89.06% # Class of committed instruction
system.cpu.op_class_0::MemWrite              10958215     10.94%    100.00% # Class of committed instruction
system.cpu.op_class_0::FloatMemRead                 0      0.00%    100.00% # Class of committed instruction
system.cpu.op_class_0::FloatMemWrite                0      0.00%    100.00% # Class of committed instruction
system.cpu.op_class_0::IprAccess                    0      0.00%    100.00% # Class of committed instruction
system.cpu.op_class_0::InstPrefetch                 0      0.00%    100.00% # Class of committed instruction
system.cpu.op_class_0::total                100196356                       # Class of committed instruction
system.cpu.tickCycles                       132197480                       # Number of cycles that the object actually ticked
system.cpu.workload.numSyscalls                    85                       # Number of system calls
system.membus.snoop_filter.hit_multi_requests            0                       # Number of requests hitting in the snoop filter with multiple (>1) holders of the requested data.
system.membus.snoop_filter.hit_multi_snoops            0                       # Number of snoops hitting in the snoop filter with multiple (>1) holders of the requested data.
system.membus.snoop_filter.hit_single_requests        56746                       # Number of requests hitting in the snoop filter with a single holder of the requested data.
system.membus.snoop_filter.hit_single_snoops            0                       # Number of snoops hitting in the snoop filter with a single holder of the requested data.
system.membus.snoop_filter.tot_requests        130103                       # Total number of requests made to the snoop filter.
system.membus.snoop_filter.tot_snoops               0                       # Total number of snoops made to the snoop filter.
system.tol2bus.snoop_filter.hit_multi_requests          107                       # Number of requests hitting in the snoop filter with multiple (>1) holders of the requested data.
system.tol2bus.snoop_filter.hit_multi_snoops            0                       # Number of snoops hitting in the snoop filter with multiple (>1) holders of the requested data.
system.tol2bus.snoop_filter.hit_single_requests       441561                       # Number of requests hitting in the snoop filter with a single holder of the requested data.
system.tol2bus.snoop_filter.hit_single_snoops          245                       # Number of snoops hitting in the snoop filter with a single holder of the requested data.
system.tol2bus.snoop_filter.tot_requests       883902                       # Total number of requests made to the snoop filter.
system.tol2bus.snoop_filter.tot_snoops            245                       # Total number of snoops made to the snoop filter.
system.clk_domain.clock                          1000                       # Clock period in ticks
system.cpu.branchPred.lookups                 4486566                       # Number of BP lookups
system.cpu.branchPred.condPredicted           3735642                       # Number of conditional branches predicted
system.cpu.branchPred.condIncorrect             81016                       # Number of conditional branches incorrect
system.cpu.branchPred.BTBLookups              2104648                       # Number of BTB lookups
system.cpu.branchPred.BTBHits                 2102536                       # Number of BTB hits
system.cpu.branchPred.BTBHitPct             99.899651                       # BTB Hit Percentage
system.cpu.branchPred.RASUsed                   65400                       # Number of times the RAS was used to get a target.
system.cpu.branchPred.RASIncorrect                 15                       # Number of incorrect RAS predictions.
system.cpu.branchPred.indirectLookups             692                       # Number of indirect predictor lookups.
system.cpu.branchPred.indirectHits                286                       # Number of indirect target hits.
system.cpu.branchPred.indirectMisses              406                       # Number of indirect misses.
system.cpu.branchPred.indirectMispredicted          170                       # Number of mispredicted indirect branches.
system.cpu.dcache.demand_hits::.cpu.data     51584984                       # number of demand (read+write) hits
system.cpu.dcache.demand_hits::total         51584984                       # number of demand (read+write) hits
system.cpu.dcache.overall_hits::.cpu.data     51586618                       # number of overall hits
system.cpu.dcache.overall_hits::total        51586618                       # number of overall hits
system.cpu.dcache.demand_misses::.cpu.data       458218                       # number of demand (read+write) misses
system.cpu.dcache.demand_misses::total         458218                       # number of demand (read+write) misses
system.cpu.dcache.overall_misses::.cpu.data       465005                       # number of overall misses
system.cpu.dcache.overall_misses::total        465005                       # number of overall misses
system.cpu.dcache.demand_miss_latency::.cpu.data  15153262000                       # number of demand (read+write) miss cycles
system.cpu.dcache.demand_miss_latency::total  15153262000                       # number of demand (read+write) miss cycles
system.cpu.dcache.overall_miss_latency::.cpu.data  15153262000                       # number of overall miss cycles
system.cpu.dcache.overall_miss_latency::total  15153262000                       # number of overall miss cycles
system.cpu.dcache.demand_accesses::.cpu.data     52043202                       # number of demand (read+write) accesses
system.cpu.dcache.demand_accesses::total     52043202                       # number of demand (read+write) accesses
system.cpu.dcache.overall_accesses::.cpu.data     52051623                       # number of overall (read+write) accesses
system.cpu.dcache.overall_accesses::total     52051623                       # number of overall (read+write) accesses
system.cpu.dcache.demand_miss_rate::.cpu.data     0.008805                       # miss rate for demand accesses
system.cpu.dcache.demand_miss_rate::total     0.008805                       # miss rate for demand accesses
system.cpu.dcache.overall_miss_rate::.cpu.data     0.008934                       # miss rate for overall accesses
system.cpu.dcache.overall_miss_rate::total     0.008934                       # miss rate for overall accesses
system.cpu.dcache.demand_avg_miss_latency::.cpu.data 33069.984156                       # average overall miss latency
system.cpu.dcache.demand_avg_miss_latency::total 33069.984156                       # average overall miss latency
system.cpu.dcache.overall_avg_miss_latency::.cpu.data 32587.309814                       # average overall miss latency
system.cpu.dcache.overall_avg_miss_latency::total 32587.309814                       # average overall miss latency
system.cpu.dcache.blocked_cycles::no_mshrs            0                       # number of cycles access was blocked
system.cpu.dcache.blocked_cycles::no_targets            0                       # number of cycles access was blocked
system.cpu.dcache.blocked::no_mshrs                 0                       # number of cycles access was blocked
system.cpu.dcache.blocked::no_targets               0                       # number of cycles access was blocked
system.cpu.dcache.avg_blocked_cycles::no_mshrs          nan                       # average number of cycles each access was blocked
system.cpu.dcache.avg_blocked_cycles::no_targets          nan                       # average number of cycles each access was blocked
system.cpu.dcache.writebacks::.writebacks       420767                       # number of writebacks
system.cpu.dcache.writebacks::total            420767                       # number of writebacks
system.cpu.dcache.demand_mshr_hits::.cpu.data        18133                       # number of demand (read+write) MSHR hits
system.cpu.dcache.demand_mshr_hits::total        18133                       # number of demand (read+write) MSHR hits
system.cpu.dcache.overall_mshr_hits::.cpu.data        18133                       # number of overall MSHR hits
system.cpu.dcache.overall_mshr_hits::total        18133                       # number of overall MSHR hits
system.cpu.dcache.demand_mshr_misses::.cpu.data       440085                       # number of demand (read+write) MSHR misses
system.cpu.dcache.demand_mshr_misses::total       440085                       # number of demand (read+write) MSHR misses
system.cpu.dcache.overall_mshr_misses::.cpu.data       442064                       # number of overall MSHR misses
system.cpu.dcache.overall_mshr_misses::total       442064                       # number of overall MSHR misses
system.cpu.dcache.demand_mshr_miss_latency::.cpu.data  13110476000                       # number of demand (read+write) MSHR miss cycles
system.cpu.dcache.demand_mshr_miss_latency::total  13110476000                       # number of demand (read+write) MSHR miss cycles
system.cpu.dcache.overall_mshr_miss_latency::.cpu.data  13274345500                       # number of overall MSHR miss cycles
system.cpu.dcache.overall_mshr_miss_latency::total  13274345500                       # number of overall MSHR miss cycles
system.cpu.dcache.demand_mshr_miss_rate::.cpu.data     0.008456                       # mshr miss rate for demand accesses
system.cpu.dcache.demand_mshr_miss_rate::total     0.008456                       # mshr miss rate for demand accesses
system.cpu.dcache.overall_mshr_miss_rate::.cpu.data     0.008493                       # mshr miss rate for overall accesses
system.cpu.dcache.overall_mshr_miss_rate::total     0.008493                       # mshr miss rate for overall accesses
system.cpu.dcache.demand_avg_mshr_miss_latency::.cpu.data 29790.781326                       # average overall mshr miss latency
system.cpu.dcache.demand_avg_mshr_miss_latency::total 29790.781326                       # average overall mshr miss latency
system.cpu.dcache.overall_avg_mshr_miss_latency::.cpu.data 30028.107921                       # average overall mshr miss latency
system.cpu.dcache.overall_avg_mshr_miss_latency::total 30028.107921                       # average overall mshr miss latency
system.cpu.dcache.replacements                 441552                       # number of replacements
system.cpu.dcache.ReadReq_hits::.cpu.data     40880384                       # number of ReadReq hits
system.cpu.dcache.ReadReq_hits::total        40880384                       # number of ReadReq hits
system.cpu.dcache.ReadReq_misses::.cpu.data       213750                       # number of ReadReq misses
system.cpu.dcache.ReadReq_misses::total        213750                       # number of ReadReq misses
system.cpu.dcache.ReadReq_miss_latency::.cpu.data   4457106500                       # number of ReadReq miss cycles
system.cpu.dcache.ReadReq_miss_latency::total   4457106500                       # number of ReadReq miss cycles
system.cpu.dcache.ReadReq_accesses::.cpu.data     41094134                       # number of ReadReq accesses(hits+misses)
system.cpu.dcache.ReadReq_accesses::total     41094134                       # number of ReadReq accesses(hits+misses)
system.cpu.dcache.ReadReq_miss_rate::.cpu.data     0.005201                       # miss rate for ReadReq accesses
system.cpu.dcache.ReadReq_miss_rate::total     0.005201                       # miss rate for ReadReq accesses
system.cpu.dcache.ReadReq_avg_miss_latency::.cpu.data 20851.960234                       # average ReadReq miss latency
system.cpu.dcache.ReadReq_avg_miss_latency::total 20851.960234                       # average ReadReq miss latency
system.cpu.dcache.ReadReq_mshr_hits::.cpu.data         1741                       # number of ReadReq MSHR hits
system.cpu.dcache.ReadReq_mshr_hits::total         1741                       # number of ReadReq MSHR hits
system.cpu.dcache.ReadReq_mshr_misses::.cpu.data       212009                       # number of ReadReq MSHR misses
system.cpu.dcache.ReadReq_mshr_misses::total       212009                       # number of ReadReq MSHR misses
system.cpu.dcache.ReadReq_mshr_miss_latency::.cpu.data   4105874500                       # number of ReadReq MSHR miss cycles
system.cpu.dcache.ReadReq_mshr_miss_latency::total   4105874500                       # number of ReadReq MSHR miss cycles
system.cpu.dcache.ReadReq_mshr_miss_rate::.cpu.data     0.005159                       # mshr miss rate for ReadReq accesses
system.cpu.dcache.ReadReq_mshr_miss_rate::total     0.005159                       # mshr miss rate for ReadReq accesses
system.cpu.dcache.ReadReq_avg_mshr_miss_latency::.cpu.data 19366.510384                       # average ReadReq mshr miss latency
system.cpu.dcache.ReadReq_avg_mshr_miss_latency::total 19366.510384                       # average ReadReq mshr miss latency
system.cpu.dcache.WriteReq_hits::.cpu.data     10704600                       # number of WriteReq hits
system.cpu.dcache.WriteReq_hits::total       10704600                       # number of WriteReq hits
system.cpu.dcache.WriteReq_misses::.cpu.data       244468                       # number of WriteReq misses
system.cpu.dcache.WriteReq_misses::total       244468                       # number of WriteReq misses
system.cpu.dcache.WriteReq_miss_latency::.cpu.data  10696155500                       # number of WriteReq miss cycles
system.cpu.dcache.WriteReq_miss_latency::total  10696155500                       # number of WriteReq miss cycles
system.cpu.dcache.WriteReq_accesses::.cpu.data     10949068                       # number of WriteReq accesses(hits+misses)
system.cpu.dcache.WriteReq_accesses::total     10949068                       # number of WriteReq accesses(hits+misses)
system.cpu.dcache.WriteReq_miss_rate::.cpu.data     0.022328                       # miss rate for WriteReq accesses
system.cpu.dcache.WriteReq_miss_rate::total     0.022328                       # miss rate for WriteReq accesses
system.cpu.dcache.WriteReq_avg_miss_latency::.cpu.data 43752.783595                       # average WriteReq miss latency
system.cpu.dcache.WriteReq_avg_miss_latency::total 43752.783595                       # average WriteReq miss latency
system.cpu.dcache.WriteReq_mshr_hits::.cpu.data        16392                       # number of WriteReq MSHR hits
system.cpu.dcache.WriteReq_mshr_hits::total        16392                       # number of WriteReq MSHR hits
system.cpu.dcache.WriteReq_mshr_misses::.cpu.data       228076                       # number of WriteReq MSHR misses
system.cpu.dcache.WriteReq_mshr_misses::total       228076                       # number of WriteReq MSHR misses
system.cpu.dcache.WriteReq_mshr_miss_latency::.cpu.data   9004601500                       # number of WriteReq MSHR miss cycles
system.cpu.dcache.WriteReq_mshr_miss_latency::total   9004601500                       # number of WriteReq MSHR miss cycles
system.cpu.dcache.WriteReq_mshr_miss_rate::.cpu.data     0.020831                       # mshr miss rate for WriteReq accesses
system.cpu.dcache.WriteReq_mshr_miss_rate::total     0.020831                       # mshr miss rate for WriteReq accesses
system.cpu.dcache.WriteReq_avg_mshr_miss_latency::.cpu.data 39480.705993                       # average WriteReq mshr miss latency
system.cpu.dcache.WriteReq_avg_mshr_miss_latency::total 39480.705993                       # average WriteReq mshr miss latency
system.cpu.dcache.SoftPFReq_hits::.cpu.data         1634                       # number of SoftPFReq hits
system.cpu.dcache.SoftPFReq_hits::total          1634                       # number of SoftPFReq hits
system.cpu.dcache.SoftPFReq_misses::.cpu.data         6787                       # number of SoftPFReq misses
system.cpu.dcache.SoftPFReq_misses::total         6787                       # number of SoftPFReq misses
system.cpu.dcache.SoftPFReq_accesses::.cpu.data         8421                       # number of SoftPFReq accesses(hits+misses)
system.cpu.dcache.SoftPFReq_accesses::total         8421                       # number of SoftPFReq accesses(hits+misses)
system.cpu.dcache.SoftPFReq_miss_rate::.cpu.data     0.805961                       # miss rate for SoftPFReq accesses
system.cpu.dcache.SoftPFReq_miss_rate::total     0.805961                       # miss rate for SoftPFReq accesses
system.cpu.dcache.SoftPFReq_mshr_misses::.cpu.data         1979                       # number of SoftPFReq MSHR misses
system.cpu.dcache.SoftPFReq_mshr_misses::total         1979                       # number of SoftPFReq MSHR misses
system.cpu.dcache.SoftPFReq_mshr_miss_latency::.cpu.data    163869500                       # number of SoftPFReq MSHR miss cycles
system.cpu.dcache.SoftPFReq_mshr_miss_latency::total    163869500                       # number of SoftPFReq MSHR miss cycles
system.cpu.dcache.SoftPFReq_mshr_miss_rate::.cpu.data     0.235008                       # mshr miss rate for SoftPFReq accesses
system.cpu.dcache.SoftPFReq_mshr_miss_rate::total     0.235008                       # mshr miss rate for SoftPFReq accesses
system.cpu.dcache.SoftPFReq_avg_mshr_miss_latency::.cpu.data 82804.194037                       # average SoftPFReq mshr miss latency
system.cpu.dcache.SoftPFReq_avg_mshr_miss_latency::total 82804.194037                       # average SoftPFReq mshr miss latency
system.cpu.dcache.LoadLockedReq_hits::.cpu.data           38                       # number of LoadLockedReq hits
system.cpu.dcache.LoadLockedReq_hits::total           38                       # number of LoadLockedReq hits
system.cpu.dcache.LoadLockedReq_accesses::.cpu.data           38                       # number of LoadLockedReq accesses(hits+misses)
system.cpu.dcache.LoadLockedReq_accesses::total           38                       # number of LoadLockedReq accesses(hits+misses)
system.cpu.dcache.StoreCondReq_hits::.cpu.data           38                       # number of StoreCondReq hits
system.cpu.dcache.StoreCondReq_hits::total           38                       # number of StoreCondReq hits
system.cpu.dcache.StoreCondReq_accesses::.cpu.data           38                       # number of StoreCondReq accesses(hits+misses)
system.cpu.dcache.StoreCondReq_accesses::total           38                       # number of StoreCondReq accesses(hits+misses)
system.cpu.dcache.power_state.pwrStateResidencyTicks::UNDEFINED  79195709500                       # Cumulative time (in ticks) in various power states
system.cpu.dcache.tags.tagsinuse           501.749289                       # Cycle average of tags in use
system.cpu.dcache.tags.total_refs            52028758                       # Total number of references to valid blocks.
system.cpu.dcache.tags.sampled_refs            442064                       # Sample count of references to valid blocks.
system.cpu.dcache.tags.avg_refs            117.695080                       # Average number of references to valid blocks.
system.cpu.dcache.tags.warmup_cycle            210500                       # Cycle when the warmup percentage was hit.
system.cpu.dcache.tags.occ_blocks::.cpu.data   501.749289                       # Average occupied blocks per requestor
system.cpu.dcache.tags.occ_percent::.cpu.data     0.979979                       # Average percentage of cache occupancy
system.cpu.dcache.tags.occ_percent::total     0.979979                       # Average percentage of cache occupancy
system.cpu.dcache.tags.occ_task_id_blocks::1024          512                       # Occupied blocks per task id
system.cpu.dcache.tags.age_task_id_blocks_1024::0          142                       # Occupied blocks per task id
system.cpu.dcache.tags.age_task_id_blocks_1024::1          351                       # Occupied blocks per task id
system.cpu.dcache.tags.age_task_id_blocks_1024::2           18                       # Occupied blocks per task id
system.cpu.dcache.tags.age_task_id_blocks_1024::4            1                       # Occupied blocks per task id
system.cpu.dcache.tags.occ_task_id_percent::1024            1                       # Percentage of cache occupancy per task id
system.cpu.dcache.tags.tag_accesses        1666096432                       # Number of tag accesses
system.cpu.dcache.tags.data_accesses       1666096432                       # Number of data accesses
system.cpu.dcache.tags.power_state.pwrStateResidencyTicks::UNDEFINED  79195709500                       # Cumulative time (in ticks) in various power states
system.cpu.dtb.instHits                             0                       # ITB inst hits
system.cpu.dtb.instMisses                           0                       # ITB inst misses
system.cpu.dtb.readHits                             0                       # DTB read hits
system.cpu.dtb.readMisses                           0                       # DTB read misses
system.cpu.dtb.writeHits                            0                       # DTB write hits
system.cpu.dtb.writeMisses                          0                       # DTB write misses
system.cpu.dtb.inserts                              0                       # Number of times an entry is inserted into the TLB
system.cpu.dtb.flushTlb                             0                       # Number of times complete TLB was flushed
system.cpu.dtb.flushTlbMva                          0                       # Number of times TLB was flushed by MVA
system.cpu.dtb.flushTlbMvaAsid                      0                       # Number of times TLB was flushed by MVA & ASID
system.cpu.dtb.flushTlbAsid                         0                       # Number of times TLB was flushed by ASID
system.cpu.dtb.flushedEntries                       0                       # Number of entries that have been flushed from TLB
system.cpu.dtb.alignFaults                          0                       # Number of TLB faults due to alignment restrictions
system.cpu.dtb.prefetchFaults                       0                       # Number of TLB faults due to prefetch
system.cpu.dtb.domainFaults                         0                       # Number of TLB faults due to domain restrictions
system.cpu.dtb.permsFaults                          0                       # Number of TLB faults due to permissions restrictions
system.cpu.dtb.readAccesses                         0                       # DTB read accesses
system.cpu.dtb.writeAccesses                        0                       # DTB write accesses
system.cpu.dtb.instAccesses                         0                       # ITB inst accesses
system.cpu.dtb.hits                                 0                       # Total TLB (inst and data) hits
system.cpu.dtb.misses                               0                       # Total TLB (inst and data) misses
system.cpu.dtb.accesses                             0                       # Total TLB (inst and data) accesses
system.cpu.dtb.stage2_mmu.stage2_tlb.instHits            0                       # ITB inst hits
system.cpu.dtb.stage2_mmu.stage2_tlb.instMisses            0                       # ITB inst misses
system.cpu.dtb.stage2_mmu.stage2_tlb.readHits            0                       # DTB read hits
system.cpu.dtb.stage2_mmu.stage2_tlb.readMisses            0                       # DTB read misses
system.cpu.dtb.stage2_mmu.stage2_tlb.writeHits            0                       # DTB write hits
system.cpu.dtb.stage2_mmu.stage2_tlb.writeMisses            0                       # DTB write misses
system.cpu.dtb.stage2_mmu.stage2_tlb.inserts            0                       # Number of times an entry is inserted into the TLB
system.cpu.dtb.stage2_mmu.stage2_tlb.flushTlb            0                       # Number of times complete TLB was flushed
system.cpu.dtb.stage2_mmu.stage2_tlb.flushTlbMva            0                       # Number of times TLB was flushed by MVA
system.cpu.dtb.stage2_mmu.stage2_tlb.flushTlbMvaAsid            0                       # Number of times TLB was flushed by MVA & ASID
system.cpu.dtb.stage2_mmu.stage2_tlb.flushTlbAsid            0                       # Number of times TLB was flushed by ASID
system.cpu.dtb.stage2_mmu.stage2_tlb.flushedEntries            0                       # Number of entries that have been flushed from TLB
system.cpu.dtb.stage2_mmu.stage2_tlb.alignFaults            0                       # Number of TLB faults due to alignment restrictions
system.cpu.dtb.stage2_mmu.stage2_tlb.prefetchFaults            0                       # Number of TLB faults due to prefetch
system.cpu.dtb.stage2_mmu.stage2_tlb.domainFaults            0                       # Number of TLB faults due to domain restrictions
system.cpu.dtb.stage2_mmu.stage2_tlb.permsFaults            0                       # Number of TLB faults due to permissions restrictions
system.cpu.dtb.stage2_mmu.stage2_tlb.readAccesses            0                       # DTB read accesses
system.cpu.dtb.stage2_mmu.stage2_tlb.writeAccesses            0                       # DTB write accesses
system.cpu.dtb.stage2_mmu.stage2_tlb.instAccesses            0                       # ITB inst accesses
system.cpu.dtb.stage2_mmu.stage2_tlb.hits            0                       # Total TLB (inst and data) hits
system.cpu.dtb.stage2_mmu.stage2_tlb.misses            0                       # Total TLB (inst and data) misses
system.cpu.dtb.stage2_mmu.stage2_tlb.accesses            0                       # Total TLB (inst and data) accesses
system.cpu.dtb.stage2_mmu.stage2_tlb.walker.walks            0                       # Table walker walks requested
system.cpu.dtb.stage2_mmu.stage2_tlb.walker.requestOrigin_Requested::Data            0                       # Table walker requests started/completed, data/inst
system.cpu.dtb.stage2_mmu.stage2_tlb.walker.requestOrigin_Requested::Inst            0                       # Table walker requests started/completed, data/inst
system.cpu.dtb.stage2_mmu.stage2_tlb.walker.requestOrigin_Requested::total            0                       # Table walker requests started/completed, data/inst
system.cpu.dtb.stage2_mmu.stage2_tlb.walker.requestOrigin_Completed::Data            0                       # Table walker requests started/completed, data/inst
system.cpu.dtb.stage2_mmu.stage2_tlb.walker.requestOrigin_Completed::Inst            0                       # Table walker requests started/completed, data/inst
system.cpu.dtb.stage2_mmu.stage2_tlb.walker.requestOrigin_Completed::total            0                       # Table walker requests started/completed, data/inst
system.cpu.dtb.stage2_mmu.stage2_tlb.walker.requestOrigin::total            0                       # Table walker requests started/completed, data/inst
system.cpu.dtb.stage2_mmu.stage2_tlb.walker.power_state.pwrStateResidencyTicks::UNDEFINED  79195709500                       # Cumulative time (in ticks) in various power states
system.cpu.dtb.walker.walks                         0                       # Table walker walks requested
system.cpu.dtb.walker.requestOrigin_Requested::Data            0                       # Table walker requests started/completed, data/inst
system.cpu.dtb.walker.requestOrigin_Requested::Inst            0                       # Table walker requests started/completed, data/inst
system.cpu.dtb.walker.requestOrigin_Requested::total            0                       # Table walker requests started/completed, data/inst
system.cpu.dtb.walker.requestOrigin_Completed::Data            0                       # Table walker requests started/completed, data/inst
system.cpu.dtb.walker.requestOrigin_Completed::Inst            0                       # Table walker requests started/completed, data/inst
system.cpu.dtb.walker.requestOrigin_Completed::total            0                       # Table walker requests started/completed, data/inst
system.cpu.dtb.walker.requestOrigin::total            0                       # Table walker requests started/completed, data/inst
system.cpu.dtb.walker.power_state.pwrStateResidencyTicks::UNDEFINED  79195709500                       # Cumulative time (in ticks) in various power states
system.cpu.fetch2.intInstructions            42689176                       # Number of integer instructions successfully decoded
system.cpu.fetch2.fpInstructions                    0                       # Number of floating point instructions successfully decoded
system.cpu.fetch2.vecInstructions                   0                       # Number of SIMD instructions successfully decoded
system.cpu.fetch2.loadInstructions           43477271                       # Number of memory load instructions successfully decoded
system.cpu.fetch2.storeInstructions          11026901                       # Number of memory store instructions successfully decoded
system.cpu.fetch2.amoInstructions                   0                       # Number of memory atomic instructions successfully decoded
system.cpu.icache.demand_hits::.cpu.inst      7519700                       # number of demand (read+write) hits
system.cpu.icache.demand_hits::total          7519700                       # number of demand (read+write) hits
system.cpu.icache.overall_hits::.cpu.inst      7519700                       # number of overall hits
system.cpu.icache.overall_hits::total         7519700                       # number of overall hits
system.cpu.icache.demand_misses::.cpu.inst          279                       # number of demand (read+write) misses
system.cpu.icache.demand_misses::total            279                       # number of demand (read+write) misses
system.cpu.icache.overall_misses::.cpu.inst          279                       # number of overall misses
system.cpu.icache.overall_misses::total           279                       # number of overall misses
system.cpu.icache.demand_miss_latency::.cpu.inst     26859500                       # number of demand (read+write) miss cycles
system.cpu.icache.demand_miss_latency::total     26859500                       # number of demand (read+write) miss cycles
system.cpu.icache.overall_miss_latency::.cpu.inst     26859500                       # number of overall miss cycles
system.cpu.icache.overall_miss_latency::total     26859500                       # number of overall miss cycles
system.cpu.icache.demand_accesses::.cpu.inst      7519979                       # number of demand (read+write) accesses
system.cpu.icache.demand_accesses::total      7519979                       # number of demand (read+write) accesses
system.cpu.icache.overall_accesses::.cpu.inst      7519979                       # number of overall (read+write) accesses
system.cpu.icache.overall_accesses::total      7519979                       # number of overall (read+write) accesses
system.cpu.icache.demand_miss_rate::.cpu.inst     0.000037                       # miss rate for demand accesses
system.cpu.icache.demand_miss_rate::total     0.000037                       # miss rate for demand accesses
system.cpu.icache.overall_miss_rate::.cpu.inst     0.000037                       # miss rate for overall accesses
system.cpu.icache.overall_miss_rate::total     0.000037                       # miss rate for overall accesses
system.cpu.icache.demand_avg_miss_latency::.cpu.inst 96270.609319                       # average overall miss latency
system.cpu.icache.demand_avg_miss_latency::total 96270.609319                       # average overall miss latency
system.cpu.icache.overall_avg_miss_latency::.cpu.inst 96270.609319                       # average overall miss latency
system.cpu.icache.overall_avg_miss_latency::total 96270.609319                       # average overall miss latency
system.cpu.icache.blocked_cycles::no_mshrs            0                       # number of cycles access was blocked
system.cpu.icache.blocked_cycles::no_targets            0                       # number of cycles access was blocked
system.cpu.icache.blocked::no_mshrs                 0                       # number of cycles access was blocked
system.cpu.icache.blocked::no_targets               0                       # number of cycles access was blocked
system.cpu.icache.avg_blocked_cycles::no_mshrs          nan                       # average number of cycles each access was blocked
system.cpu.icache.avg_blocked_cycles::no_targets          nan                       # average number of cycles each access was blocked
system.cpu.icache.writebacks::.writebacks            7                       # number of writebacks
system.cpu.icache.writebacks::total                 7                       # number of writebacks
system.cpu.icache.demand_mshr_misses::.cpu.inst          279                       # number of demand (read+write) MSHR misses
system.cpu.icache.demand_mshr_misses::total          279                       # number of demand (read+write) MSHR misses
system.cpu.icache.overall_mshr_misses::.cpu.inst          279                       # number of overall MSHR misses
system.cpu.icache.overall_mshr_misses::total          279                       # number of overall MSHR misses
system.cpu.icache.demand_mshr_miss_latency::.cpu.inst     26580500                       # number of demand (read+write) MSHR miss cycles
system.cpu.icache.demand_mshr_miss_latency::total     26580500                       # number of demand (read+write) MSHR miss cycles
system.cpu.icache.overall_mshr_miss_latency::.cpu.inst     26580500                       # number of overall MSHR miss cycles
system.cpu.icache.overall_mshr_miss_latency::total     26580500                       # number of overall MSHR miss cycles
system.cpu.icache.demand_mshr_miss_rate::.cpu.inst     0.000037                       # mshr miss rate for demand accesses
system.cpu.icache.demand_mshr_miss_rate::total     0.000037                       # mshr miss rate for demand accesses
system.cpu.icache.overall_mshr_miss_rate::.cpu.inst     0.000037                       # mshr miss rate for overall accesses
system.cpu.icache.overall_mshr_miss_rate::total     0.000037                       # mshr miss rate for overall accesses
system.cpu.icache.demand_avg_mshr_miss_latency::.cpu.inst 95270.609319                       # average overall mshr miss latency
system.cpu.icache.demand_avg_mshr_miss_latency::total 95270.609319                       # average overall mshr miss latency
system.cpu.icache.overall_avg_mshr_miss_latency::.cpu.inst 95270.609319                       # average overall mshr miss latency
system.cpu.icache.overall_avg_mshr_miss_latency::total 95270.609319                       # average overall mshr miss latency
system.cpu.icache.replacements                      7                       # number of replacements
system.cpu.icache.ReadReq_hits::.cpu.inst      7519700                       # number of ReadReq hits
system.cpu.icache.ReadReq_hits::total         7519700                       # number of ReadReq hits
system.cpu.icache.ReadReq_misses::.cpu.inst          279                       # number of ReadReq misses
system.cpu.icache.ReadReq_misses::total           279                       # number of ReadReq misses
system.cpu.icache.ReadReq_miss_latency::.cpu.inst     26859500                       # number of ReadReq miss cycles
system.cpu.icache.ReadReq_miss_latency::total     26859500                       # number of ReadReq miss cycles
system.cpu.icache.ReadReq_accesses::.cpu.inst      7519979                       # number of ReadReq accesses(hits+misses)
system.cpu.icache.ReadReq_accesses::total      7519979                       # number of ReadReq accesses(hits+misses)
system.cpu.icache.ReadReq_miss_rate::.cpu.inst     0.000037                       # miss rate for ReadReq accesses
system.cpu.icache.ReadReq_miss_rate::total     0.000037                       # miss rate for ReadReq accesses
system.cpu.icache.ReadReq_avg_miss_latency::.cpu.inst 96270.609319                       # average ReadReq miss latency
system.cpu.icache.ReadReq_avg_miss_latency::total 96270.609319                       # average ReadReq miss latency
system.cpu.icache.ReadReq_mshr_misses::.cpu.inst          279                       # number of ReadReq MSHR misses
system.cpu.icache.ReadReq_mshr_misses::total          279                       # number of ReadReq MSHR misses
system.cpu.icache.ReadReq_mshr_miss_latency::.cpu.inst     26580500                       # number of ReadReq MSHR miss cycles
system.cpu.icache.ReadReq_mshr_miss_latency::total     26580500                       # number of ReadReq MSHR miss cycles
system.cpu.icache.ReadReq_mshr_miss_rate::.cpu.inst     0.000037                       # mshr miss rate for ReadReq accesses
system.cpu.icache.ReadReq_mshr_miss_rate::total     0.000037                       # mshr miss rate for ReadReq accesses
system.cpu.icache.ReadReq_avg_mshr_miss_latency::.cpu.inst 95270.609319                       # average ReadReq mshr miss latency
system.cpu.icache.ReadReq_avg_mshr_miss_latency::total 95270.609319                       # average ReadReq mshr miss latency
system.cpu.icache.power_state.pwrStateResidencyTicks::UNDEFINED  79195709500                       # Cumulative time (in ticks) in various power states
system.cpu.icache.tags.tagsinuse           237.426672                       # Cycle average of tags in use
system.cpu.icache.tags.total_refs             7519979                       # Total number of references to valid blocks.
system.cpu.icache.tags.sampled_refs               279                       # Sample count of references to valid blocks.
system.cpu.icache.tags.avg_refs          26953.329749                       # Average number of references to valid blocks.
system.cpu.icache.tags.warmup_cycle            102500                       # Cycle when the warmup percentage was hit.
system.cpu.icache.tags.occ_blocks::.cpu.inst   237.426672                       # Average occupied blocks per requestor
system.cpu.icache.tags.occ_percent::.cpu.inst     0.463724                       # Average percentage of cache occupancy
system.cpu.icache.tags.occ_percent::total     0.463724                       # Average percentage of cache occupancy
system.cpu.icache.tags.occ_task_id_blocks::1024          272                       # Occupied blocks per task id
system.cpu.icache.tags.age_task_id_blocks_1024::3           24                       # Occupied blocks per task id
system.cpu.icache.tags.age_task_id_blocks_1024::4          248                       # Occupied blocks per task id
system.cpu.icache.tags.occ_task_id_percent::1024     0.531250                       # Percentage of cache occupancy per task id
system.cpu.icache.tags.tag_accesses          30080195                       # Number of tag accesses
system.cpu.icache.tags.data_accesses         30080195                       # Number of data accesses
system.cpu.icache.tags.power_state.pwrStateResidencyTicks::UNDEFINED  79195709500                       # Cumulative time (in ticks) in various power states
system.cpu.itb.instHits                             0                       # ITB inst hits
system.cpu.itb.instMisses                           0                       # ITB inst misses
system.cpu.itb.readHits                             0                       # DTB read hits
system.cpu.itb.readMisses                           0                       # DTB read misses
system.cpu.itb.writeHits                            0                       # DTB write hits
system.cpu.itb.writeMisses                          0                       # DTB write misses
system.cpu.itb.inserts                              0                       # Number of times an entry is inserted into the TLB
system.cpu.itb.flushTlb                             0                       # Number of times complete TLB was flushed
system.cpu.itb.flushTlbMva                          0                       # Number of times TLB was flushed by MVA
system.cpu.itb.flushTlbMvaAsid                      0                       # Number of times TLB was flushed by MVA & ASID
system.cpu.itb.flushTlbAsid                         0                       # Number of times TLB was flushed by ASID
system.cpu.itb.flushedEntries                       0                       # Number of entries that have been flushed from TLB
system.cpu.itb.alignFaults                          0                       # Number of TLB faults due to alignment restrictions
system.cpu.itb.prefetchFaults                       0                       # Number of TLB faults due to prefetch
system.cpu.itb.domainFaults                         0                       # Number of TLB faults due to domain restrictions
system.cpu.itb.permsFaults                          0                       # Number of TLB faults due to permissions restrictions
system.cpu.itb.readAccesses                         0                       # DTB read accesses
system.cpu.itb.writeAccesses                        0                       # DTB write accesses
system.cpu.itb.instAccesses                         0                       # ITB inst accesses
system.cpu.itb.hits                                 0                       # Total TLB (inst and data) hits
system.cpu.itb.misses                               0                       # Total TLB (inst and data) misses
system.cpu.itb.accesses                             0                       # Total TLB (inst and data) accesses
system.cpu.itb.stage2_mmu.stage2_tlb.instHits            0                       # ITB inst hits
system.cpu.itb.stage2_mmu.stage2_tlb.instMisses            0                       # ITB inst misses
system.cpu.itb.stage2_mmu.stage2_tlb.readHits            0                       # DTB read hits
system.cpu.itb.stage2_mmu.stage2_tlb.readMisses            0                       # DTB read misses
system.cpu.itb.stage2_mmu.stage2_tlb.writeHits            0                       # DTB write hits
system.cpu.itb.stage2_mmu.stage2_tlb.writeMisses            0                       # DTB write misses
system.cpu.itb.stage2_mmu.stage2_tlb.inserts            0                       # Number of times an entry is inserted into the TLB
system.cpu.itb.stage2_mmu.stage2_tlb.flushTlb            0                       # Number of times complete TLB was flushed
system.cpu.itb.stage2_mmu.stage2_tlb.flushTlbMva            0                       # Number of times TLB was flushed by MVA
system.cpu.itb.stage2_mmu.stage2_tlb.flushTlbMvaAsid            0                       # Number of times TLB was flushed by MVA & ASID
system.cpu.itb.stage2_mmu.stage2_tlb.flushTlbAsid            0                       # Number of times TLB was flushed by ASID
system.cpu.itb.stage2_mmu.stage2_tlb.flushedEntries            0                       # Number of entries that have been flushed from TLB
system.cpu.itb.stage2_mmu.stage2_tlb.alignFaults            0                       # Number of TLB faults due to alignment restrictions
system.cpu.itb.stage2_mmu.stage2_tlb.prefetchFaults            0                       # Number of TLB faults due to prefetch
system.cpu.itb.stage2_mmu.stage2_tlb.domainFaults            0                       # Number of TLB faults due to domain restrictions
system.cpu.itb.stage2_mmu.stage2_tlb.permsFaults            0                       # Number of TLB faults due to permissions restrictions
system.cpu.itb.stage2_mmu.stage2_tlb.readAccesses            0                       # DTB read accesses
system.cpu.itb.stage2_mmu.stage2_tlb.writeAccesses            0                       # DTB write accesses
system.cpu.itb.stage2_mmu.stage2_tlb.instAccesses            0                       # ITB inst accesses
system.cpu.itb.stage2_mmu.stage2_tlb.hits            0                       # Total TLB (inst and data) hits
system.cpu.itb.stage2_mmu.stage2_tlb.misses            0                       # Total TLB (inst and data) misses
system.cpu.itb.stage2_mmu.stage2_tlb.accesses            0                       # Total TLB (inst and data) accesses
system.cpu.itb.stage2_mmu.stage2_tlb.walker.walks            0                       # Table walker walks requested
system.cpu.itb.stage2_mmu.stage2_tlb.walker.requestOrigin_Requested::Data            0                       # Table walker requests started/completed, data/inst
system.cpu.itb.stage2_mmu.stage2_tlb.walker.requestOrigin_Requested::Inst            0                       # Table walker requests started/completed, data/inst
system.cpu.itb.stage2_mmu.stage2_tlb.walker.requestOrigin_Requested::total            0                       # Table walker requests started/completed, data/inst
system.cpu.itb.stage2_mmu.stage2_tlb.walker.requestOrigin_Completed::Data            0                       # Table walker requests started/completed, data/inst
system.cpu.itb.stage2_mmu.stage2_tlb.walker.requestOrigin_Completed::Inst            0                       # Table walker requests started/completed, data/inst
system.cpu.itb.stage2_mmu.stage2_tlb.walker.requestOrigin_Completed::total            0                       # Table walker requests started/completed, data/inst
system.cpu.itb.stage2_mmu.stage2_tlb.walker.requestOrigin::total            0                       # Table walker requests started/completed, data/inst
system.cpu.itb.stage2_mmu.stage2_tlb.walker.power_state.pwrStateResidencyTicks::UNDEFINED  79195709500                       # Cumulative time (in ticks) in various power states
system.cpu.itb.walker.walks                         0                       # Table walker walks requested
system.cpu.itb.walker.requestOrigin_Requested::Data            0                       # Table walker requests started/completed, data/inst
system.cpu.itb.walker.requestOrigin_Requested::Inst            0                       # Table walker requests started/completed, data/inst
system.cpu.itb.walker.requestOrigin_Requested::total            0                       # Table walker requests started/completed, data/inst
system.cpu.itb.walker.requestOrigin_Completed::Data            0                       # Table walker requests started/completed, data/inst
system.cpu.itb.walker.requestOrigin_Completed::Inst            0                       # Table walker requests started/completed, data/inst
system.cpu.itb.walker.requestOrigin_Completed::total            0                       # Table walker requests started/completed, data/inst
system.cpu.itb.walker.requestOrigin::total            0                       # Table walker requests started/completed, data/inst
system.cpu.itb.walker.power_state.pwrStateResidencyTicks::UNDEFINED  79195709500                       # Cumulative time (in ticks) in various power states
system.cpu.power_state.pwrStateResidencyTicks::ON  79195709500                       # Cumulative time (in ticks) in various power states
system.cpu.thread0.numInsts                 100000001                       # Number of Instructions committed
system.cpu.thread0.numOps                   100196356                       # Number of Ops committed
system.cpu.thread0.numMemRefs                       0                       # Number of Memory References
system.cpu_clk_domain.clock                       500                       # Clock period in ticks
system.cpu_voltage_domain.voltage                   1                       # Voltage in Volts
system.l2.demand_hits::.cpu.inst                   11                       # number of demand (read+write) hits
system.l2.demand_hits::.cpu.data               368963                       # number of demand (read+write) hits
system.l2.demand_hits::total                   368974                       # number of demand (read+write) hits
system.l2.overall_hits::.cpu.inst                  11                       # number of overall hits
system.l2.overall_hits::.cpu.data              368963                       # number of overall hits
system.l2.overall_hits::total                  368974                       # number of overall hits
system.l2.demand_misses::.cpu.inst                268                       # number of demand (read+write) misses
system.l2.demand_misses::.cpu.data              73101                       # number of demand (read+write) misses
system.l2.demand_misses::total                  73369                       # number of demand (read+write) misses
system.l2.overall_misses::.cpu.inst               268                       # number of overall misses
system.l2.overall_misses::.cpu.data             73101                       # number of overall misses
system.l2.overall_misses::total                 73369                       # number of overall misses
system.l2.demand_miss_latency::.cpu.inst     26029500                       # number of demand (read+write) miss cycles
system.l2.demand_miss_latency::.cpu.data   8652962500                       # number of demand (read+write) miss cycles
system.l2.demand_miss_latency::total       8678992000                       # number of demand (read+write) miss cycles
system.l2.overall_miss_latency::.cpu.inst     26029500                       # number of overall miss cycles
system.l2.overall_miss_latency::.cpu.data   8652962500                       # number of overall miss cycles
system.l2.overall_miss_latency::total      8678992000                       # number of overall miss cycles
system.l2.demand_accesses::.cpu.inst              279                       # number of demand (read+write) accesses
system.l2.demand_accesses::.cpu.data           442064                       # number of demand (read+write) accesses
system.l2.demand_accesses::total               442343                       # number of demand (read+write) accesses
system.l2.overall_accesses::.cpu.inst             279                       # number of overall (read+write) accesses
system.l2.overall_accesses::.cpu.data          442064                       # number of overall (read+write) accesses
system.l2.overall_accesses::total              442343                       # number of overall (read+write) accesses
system.l2.demand_miss_rate::.cpu.inst        0.960573                       # miss rate for demand accesses
system.l2.demand_miss_rate::.cpu.data        0.165363                       # miss rate for demand accesses
system.l2.demand_miss_rate::total            0.165864                       # miss rate for demand accesses
system.l2.overall_miss_rate::.cpu.inst       0.960573                       # miss rate for overall accesses
system.l2.overall_miss_rate::.cpu.data       0.165363                       # miss rate for overall accesses
system.l2.overall_miss_rate::total           0.165864                       # miss rate for overall accesses
system.l2.demand_avg_miss_latency::.cpu.inst        97125                       # average overall miss latency
system.l2.demand_avg_miss_latency::.cpu.data 118369.960739                       # average overall miss latency
system.l2.demand_avg_miss_latency::total 118292.357808                       # average overall miss latency
system.l2.overall_avg_miss_latency::.cpu.inst        97125                       # average overall miss latency
system.l2.overall_avg_miss_latency::.cpu.data 118369.960739                       # average overall miss latency
system.l2.overall_avg_miss_latency::total 118292.357808                       # average overall miss latency
system.l2.blocked_cycles::no_mshrs                  0                       # number of cycles access was blocked
system.l2.blocked_cycles::no_targets                0                       # number of cycles access was blocked
system.l2.blocked::no_mshrs                         0                       # number of cycles access was blocked
system.l2.blocked::no_targets                       0                       # number of cycles access was blocked
system.l2.avg_blocked_cycles::no_mshrs            nan                       # average number of cycles each access was blocked
system.l2.avg_blocked_cycles::no_targets          nan                       # average number of cycles each access was blocked
system.l2.writebacks::.writebacks               40206                       # number of writebacks
system.l2.writebacks::total                     40206                       # number of writebacks
system.l2.demand_mshr_hits::.cpu.inst               2                       # number of demand (read+write) MSHR hits
system.l2.demand_mshr_hits::.cpu.data               4                       # number of demand (read+write) MSHR hits
system.l2.demand_mshr_hits::total                   6                       # number of demand (read+write) MSHR hits
system.l2.overall_mshr_hits::.cpu.inst              2                       # number of overall MSHR hits
system.l2.overall_mshr_hits::.cpu.data              4                       # number of overall MSHR hits
system.l2.overall_mshr_hits::total                  6                       # number of overall MSHR hits
system.l2.demand_mshr_misses::.cpu.inst           266                       # number of demand (read+write) MSHR misses
system.l2.demand_mshr_misses::.cpu.data         73097                       # number of demand (read+write) MSHR misses
system.l2.demand_mshr_misses::total             73363                       # number of demand (read+write) MSHR misses
system.l2.overall_mshr_misses::.cpu.inst          266                       # number of overall MSHR misses
system.l2.overall_mshr_misses::.cpu.data        73097                       # number of overall MSHR misses
system.l2.overall_mshr_misses::total            73363                       # number of overall MSHR misses
system.l2.demand_mshr_miss_latency::.cpu.inst     23206000                       # number of demand (read+write) MSHR miss cycles
system.l2.demand_mshr_miss_latency::.cpu.data   7921667500                       # number of demand (read+write) MSHR miss cycles
system.l2.demand_mshr_miss_latency::total   7944873500                       # number of demand (read+write) MSHR miss cycles
system.l2.overall_mshr_miss_latency::.cpu.inst     23206000                       # number of overall MSHR miss cycles
system.l2.overall_mshr_miss_latency::.cpu.data   7921667500                       # number of overall MSHR miss cycles
system.l2.overall_mshr_miss_latency::total   7944873500                       # number of overall MSHR miss cycles
system.l2.demand_mshr_miss_rate::.cpu.inst     0.953405                       # mshr miss rate for demand accesses
system.l2.demand_mshr_miss_rate::.cpu.data     0.165354                       # mshr miss rate for demand accesses
system.l2.demand_mshr_miss_rate::total       0.165851                       # mshr miss rate for demand accesses
system.l2.overall_mshr_miss_rate::.cpu.inst     0.953405                       # mshr miss rate for overall accesses
system.l2.overall_mshr_miss_rate::.cpu.data     0.165354                       # mshr miss rate for overall accesses
system.l2.overall_mshr_miss_rate::total      0.165851                       # mshr miss rate for overall accesses
system.l2.demand_avg_mshr_miss_latency::.cpu.inst 87240.601504                       # average overall mshr miss latency
system.l2.demand_avg_mshr_miss_latency::.cpu.data 108371.992011                       # average overall mshr miss latency
system.l2.demand_avg_mshr_miss_latency::total 108295.373690                       # average overall mshr miss latency
system.l2.overall_avg_mshr_miss_latency::.cpu.inst 87240.601504                       # average overall mshr miss latency
system.l2.overall_avg_mshr_miss_latency::.cpu.data 108371.992011                       # average overall mshr miss latency
system.l2.overall_avg_mshr_miss_latency::total 108295.373690                       # average overall mshr miss latency
system.l2.replacements                          56985                       # number of replacements
system.l2.WritebackDirty_hits::.writebacks       420767                       # number of WritebackDirty hits
system.l2.WritebackDirty_hits::total           420767                       # number of WritebackDirty hits
system.l2.WritebackDirty_accesses::.writebacks       420767                       # number of WritebackDirty accesses(hits+misses)
system.l2.WritebackDirty_accesses::total       420767                       # number of WritebackDirty accesses(hits+misses)
system.l2.WritebackClean_hits::.writebacks            7                       # number of WritebackClean hits
system.l2.WritebackClean_hits::total                7                       # number of WritebackClean hits
system.l2.WritebackClean_accesses::.writebacks            7                       # number of WritebackClean accesses(hits+misses)
system.l2.WritebackClean_accesses::total            7                       # number of WritebackClean accesses(hits+misses)
system.l2.ReadExReq_hits::.cpu.data            173100                       # number of ReadExReq hits
system.l2.ReadExReq_hits::total                173100                       # number of ReadExReq hits
system.l2.ReadExReq_misses::.cpu.data           54976                       # number of ReadExReq misses
system.l2.ReadExReq_misses::total               54976                       # number of ReadExReq misses
system.l2.ReadExReq_miss_latency::.cpu.data   6842307500                       # number of ReadExReq miss cycles
system.l2.ReadExReq_miss_latency::total    6842307500                       # number of ReadExReq miss cycles
system.l2.ReadExReq_accesses::.cpu.data        228076                       # number of ReadExReq accesses(hits+misses)
system.l2.ReadExReq_accesses::total            228076                       # number of ReadExReq accesses(hits+misses)
system.l2.ReadExReq_miss_rate::.cpu.data     0.241042                       # miss rate for ReadExReq accesses
system.l2.ReadExReq_miss_rate::total         0.241042                       # miss rate for ReadExReq accesses
system.l2.ReadExReq_avg_miss_latency::.cpu.data 124459.900684                       # average ReadExReq miss latency
system.l2.ReadExReq_avg_miss_latency::total 124459.900684                       # average ReadExReq miss latency
system.l2.ReadExReq_mshr_misses::.cpu.data        54976                       # number of ReadExReq MSHR misses
system.l2.ReadExReq_mshr_misses::total          54976                       # number of ReadExReq MSHR misses
system.l2.ReadExReq_mshr_miss_latency::.cpu.data   6292547500                       # number of ReadExReq MSHR miss cycles
system.l2.ReadExReq_mshr_miss_latency::total   6292547500                       # number of ReadExReq MSHR miss cycles
system.l2.ReadExReq_mshr_miss_rate::.cpu.data     0.241042                       # mshr miss rate for ReadExReq accesses
system.l2.ReadExReq_mshr_miss_rate::total     0.241042                       # mshr miss rate for ReadExReq accesses
system.l2.ReadExReq_avg_mshr_miss_latency::.cpu.data 114459.900684                       # average ReadExReq mshr miss latency
system.l2.ReadExReq_avg_mshr_miss_latency::total 114459.900684                       # average ReadExReq mshr miss latency
system.l2.ReadCleanReq_hits::.cpu.inst             11                       # number of ReadCleanReq hits
system.l2.ReadCleanReq_hits::total                 11                       # number of ReadCleanReq hits
system.l2.ReadCleanReq_misses::.cpu.inst          268                       # number of ReadCleanReq misses
system.l2.ReadCleanReq_misses::total              268                       # number of ReadCleanReq misses
system.l2.ReadCleanReq_miss_latency::.cpu.inst     26029500                       # number of ReadCleanReq miss cycles
system.l2.ReadCleanReq_miss_latency::total     26029500                       # number of ReadCleanReq miss cycles
system.l2.ReadCleanReq_accesses::.cpu.inst          279                       # number of ReadCleanReq accesses(hits+misses)
system.l2.ReadCleanReq_accesses::total            279                       # number of ReadCleanReq accesses(hits+misses)
system.l2.ReadCleanReq_miss_rate::.cpu.inst     0.960573                       # miss rate for ReadCleanReq accesses
system.l2.ReadCleanReq_miss_rate::total      0.960573                       # miss rate for ReadCleanReq accesses
system.l2.ReadCleanReq_avg_miss_latency::.cpu.inst        97125                       # average ReadCleanReq miss latency
system.l2.ReadCleanReq_avg_miss_latency::total        97125                       # average ReadCleanReq miss latency
system.l2.ReadCleanReq_mshr_hits::.cpu.inst            2                       # number of ReadCleanReq MSHR hits
system.l2.ReadCleanReq_mshr_hits::total             2                       # number of ReadCleanReq MSHR hits
system.l2.ReadCleanReq_mshr_misses::.cpu.inst          266                       # number of ReadCleanReq MSHR misses
system.l2.ReadCleanReq_mshr_misses::total          266                       # number of ReadCleanReq MSHR misses
system.l2.ReadCleanReq_mshr_miss_latency::.cpu.inst     23206000                       # number of ReadCleanReq MSHR miss cycles
system.l2.ReadCleanReq_mshr_miss_latency::total     23206000                       # number of ReadCleanReq MSHR miss cycles
system.l2.ReadCleanReq_mshr_miss_rate::.cpu.inst     0.953405                       # mshr miss rate for ReadCleanReq accesses
system.l2.ReadCleanReq_mshr_miss_rate::total     0.953405                       # mshr miss rate for ReadCleanReq accesses
system.l2.ReadCleanReq_avg_mshr_miss_latency::.cpu.inst 87240.601504                       # average ReadCleanReq mshr miss latency
system.l2.ReadCleanReq_avg_mshr_miss_latency::total 87240.601504                       # average ReadCleanReq mshr miss latency
system.l2.ReadSharedReq_hits::.cpu.data        195863                       # number of ReadSharedReq hits
system.l2.ReadSharedReq_hits::total            195863                       # number of ReadSharedReq hits
system.l2.ReadSharedReq_misses::.cpu.data        18125                       # number of ReadSharedReq misses
system.l2.ReadSharedReq_misses::total           18125                       # number of ReadSharedReq misses
system.l2.ReadSharedReq_miss_latency::.cpu.data   1810655000                       # number of ReadSharedReq miss cycles
system.l2.ReadSharedReq_miss_latency::total   1810655000                       # number of ReadSharedReq miss cycles
system.l2.ReadSharedReq_accesses::.cpu.data       213988                       # number of ReadSharedReq accesses(hits+misses)
system.l2.ReadSharedReq_accesses::total        213988                       # number of ReadSharedReq accesses(hits+misses)
system.l2.ReadSharedReq_miss_rate::.cpu.data     0.084701                       # miss rate for ReadSharedReq accesses
system.l2.ReadSharedReq_miss_rate::total     0.084701                       # miss rate for ReadSharedReq accesses
system.l2.ReadSharedReq_avg_miss_latency::.cpu.data 99898.206897                       # average ReadSharedReq miss latency
system.l2.ReadSharedReq_avg_miss_latency::total 99898.206897                       # average ReadSharedReq miss latency
system.l2.ReadSharedReq_mshr_hits::.cpu.data            4                       # number of ReadSharedReq MSHR hits
system.l2.ReadSharedReq_mshr_hits::total            4                       # number of ReadSharedReq MSHR hits
system.l2.ReadSharedReq_mshr_misses::.cpu.data        18121                       # number of ReadSharedReq MSHR misses
system.l2.ReadSharedReq_mshr_misses::total        18121                       # number of ReadSharedReq MSHR misses
system.l2.ReadSharedReq_mshr_miss_latency::.cpu.data   1629120000                       # number of ReadSharedReq MSHR miss cycles
system.l2.ReadSharedReq_mshr_miss_latency::total   1629120000                       # number of ReadSharedReq MSHR miss cycles
system.l2.ReadSharedReq_mshr_miss_rate::.cpu.data     0.084682                       # mshr miss rate for ReadSharedReq accesses
system.l2.ReadSharedReq_mshr_miss_rate::total     0.084682                       # mshr miss rate for ReadSharedReq accesses
system.l2.ReadSharedReq_avg_mshr_miss_latency::.cpu.data 89902.323271                       # average ReadSharedReq mshr miss latency
system.l2.ReadSharedReq_avg_mshr_miss_latency::total 89902.323271                       # average ReadSharedReq mshr miss latency
system.l2.power_state.pwrStateResidencyTicks::UNDEFINED  79195709500                       # Cumulative time (in ticks) in various power states
system.l2.tags.tagsinuse                 15839.739637                       # Cycle average of tags in use
system.l2.tags.total_refs                      883789                       # Total number of references to valid blocks.
system.l2.tags.sampled_refs                     73369                       # Sample count of references to valid blocks.
system.l2.tags.avg_refs                     12.045810                       # Average number of references to valid blocks.
system.l2.tags.warmup_cycle                     92000                       # Cycle when the warmup percentage was hit.
system.l2.tags.occ_blocks::.writebacks       2.882324                       # Average occupied blocks per requestor
system.l2.tags.occ_blocks::.cpu.inst        39.206493                       # Average occupied blocks per requestor
system.l2.tags.occ_blocks::.cpu.data     15797.650820                       # Average occupied blocks per requestor
system.l2.tags.occ_percent::.writebacks      0.000176                       # Average percentage of cache occupancy
system.l2.tags.occ_percent::.cpu.inst        0.002393                       # Average percentage of cache occupancy
system.l2.tags.occ_percent::.cpu.data        0.964212                       # Average percentage of cache occupancy
system.l2.tags.occ_percent::total            0.966781                       # Average percentage of cache occupancy
system.l2.tags.occ_task_id_blocks::1024         16384                       # Occupied blocks per task id
system.l2.tags.age_task_id_blocks_1024::3         1063                       # Occupied blocks per task id
system.l2.tags.age_task_id_blocks_1024::4        15321                       # Occupied blocks per task id
system.l2.tags.occ_task_id_percent::1024            1                       # Percentage of cache occupancy per task id
system.l2.tags.tag_accesses                  28354809                       # Number of tag accesses
system.l2.tags.data_accesses                 28354809                       # Number of data accesses
system.l2.tags.power_state.pwrStateResidencyTicks::UNDEFINED  79195709500                       # Cumulative time (in ticks) in various power states
system.mem_ctrls.avgPriority_.writebacks::samples    160824.00                       # Average QoS priority value for accepted requests
system.mem_ctrls.avgPriority_.cpu.inst::samples      1064.00                       # Average QoS priority value for accepted requests
system.mem_ctrls.avgPriority_.cpu.data::samples    292388.00                       # Average QoS priority value for accepted requests
system.mem_ctrls.priorityMinLatency      0.000000018750                       # per QoS priority minimum request to response latency (s)
system.mem_ctrls.priorityMaxLatency      0.010700314250                       # per QoS priority maximum request to response latency (s)
system.mem_ctrls.numReadWriteTurnArounds         9844                       # Number of turnarounds from READ to WRITE
system.mem_ctrls.numWriteReadTurnArounds         9844                       # Number of turnarounds from WRITE to READ
system.mem_ctrls.numStayReadState              405810                       # Number of times bus staying in READ state
system.mem_ctrls.numStayWriteState             151220                       # Number of times bus staying in WRITE state
system.mem_ctrls.readReqs                       73363                       # Number of read requests accepted
system.mem_ctrls.writeReqs                      40206                       # Number of write requests accepted
system.mem_ctrls.readBursts                    293452                       # Number of controller read bursts, including those serviced by the write queue
system.mem_ctrls.writeBursts                   160824                       # Number of controller write bursts, including those merged in the write queue
system.mem_ctrls.servicedByWrQ                      0                       # Number of controller read bursts serviced by the write queue
system.mem_ctrls.mergedWrBursts                     0                       # Number of controller write bursts merged with an existing one
system.mem_ctrls.neitherReadNorWriteReqs            0                       # Number of requests that are neither read nor write
system.mem_ctrls.avgRdQLen                       4.13                       # Average read queue length when enqueuing
system.mem_ctrls.avgWrQLen                      27.94                       # Average write queue length when enqueuing
system.mem_ctrls.numRdRetry                         0                       # Number of times read queue was full causing retry
system.mem_ctrls.numWrRetry                         0                       # Number of times write queue was full causing retry
system.mem_ctrls.readPktSize::0                     0                       # Read request sizes (log2)
system.mem_ctrls.readPktSize::1                     0                       # Read request sizes (log2)
system.mem_ctrls.readPktSize::2                     0                       # Read request sizes (log2)
system.mem_ctrls.readPktSize::3                     0                       # Read request sizes (log2)
system.mem_ctrls.readPktSize::4                     0                       # Read request sizes (log2)
system.mem_ctrls.readPktSize::5                     0                       # Read request sizes (log2)
system.mem_ctrls.readPktSize::6                293452                       # Read request sizes (log2)
system.mem_ctrls.readPktSize::7                     0                       # Read request sizes (log2)
system.mem_ctrls.readPktSize::8                     0                       # Read request sizes (log2)
system.mem_ctrls.writePktSize::0                    0                       # Write request sizes (log2)
system.mem_ctrls.writePktSize::1                    0                       # Write request sizes (log2)
system.mem_ctrls.writePktSize::2                    0                       # Write request sizes (log2)
system.mem_ctrls.writePktSize::3                    0                       # Write request sizes (log2)
system.mem_ctrls.writePktSize::4                    0                       # Write request sizes (log2)
system.mem_ctrls.writePktSize::5                    0                       # Write request sizes (log2)
system.mem_ctrls.writePktSize::6               160824                       # Write request sizes (log2)
system.mem_ctrls.writePktSize::7                    0                       # Write request sizes (log2)
system.mem_ctrls.writePktSize::8                    0                       # Write request sizes (log2)
system.mem_ctrls.rdQLenPdf::0                   57691                       # What read queue length does an incoming req see
system.mem_ctrls.rdQLenPdf::1                   57804                       # What read queue length does an incoming req see
system.mem_ctrls.rdQLenPdf::2                   57880                       # What read queue length does an incoming req see
system.mem_ctrls.rdQLenPdf::3                   58956                       # What read queue length does an incoming req see
system.mem_ctrls.rdQLenPdf::4                   15670                       # What read queue length does an incoming req see
system.mem_ctrls.rdQLenPdf::5                   15557                       # What read queue length does an incoming req see
system.mem_ctrls.rdQLenPdf::6                   15481                       # What read queue length does an incoming req see
[...]
system.mem_ctrls.dram.bw_write::.writebacks    129965829                       # Write bandwidth from this memory (bytes/s)
system.mem_ctrls.dram.bw_write::total       129965829                       # Write bandwidth from this memory (bytes/s)
system.mem_ctrls.dram.bw_total::.writebacks    129965829                       # Total bandwidth to/from this memory (bytes/s)
system.mem_ctrls.dram.bw_total::.cpu.inst       859845                       # Total bandwidth to/from this memory (bytes/s)
system.mem_ctrls.dram.bw_total::.cpu.data    236285932                       # Total bandwidth to/from this memory (bytes/s)
system.mem_ctrls.dram.bw_total::total       367111605                       # Total bandwidth to/from this memory (bytes/s)
system.mem_ctrls.dram.readBursts               293452                       # Number of DRAM read bursts
system.mem_ctrls.dram.writeBursts              160809                       # Number of DRAM write bursts
system.mem_ctrls.dram.perBankRdBursts::0        18428                       # Per bank write bursts
system.mem_ctrls.dram.perBankRdBursts::1        18448                       # Per bank write bursts
system.mem_ctrls.dram.perBankRdBursts::2        18444                       # Per bank write bursts
system.mem_ctrls.dram.perBankRdBursts::3        18480                       # Per bank write bursts
system.mem_ctrls.dram.perBankRdBursts::4        18500                       # Per bank write bursts
system.mem_ctrls.dram.perBankRdBursts::5        18280                       # Per bank write bursts
system.mem_ctrls.dram.perBankRdBursts::6        18312                       # Per bank write bursts
system.mem_ctrls.dram.perBankRdBursts::7        18228                       # Per bank write bursts
system.mem_ctrls.dram.perBankRdBursts::8        18308                       # Per bank write bursts
system.mem_ctrls.dram.perBankRdBursts::9        18092                       # Per bank write bursts
system.mem_ctrls.dram.perBankRdBursts::10        18360                       # Per bank write bursts
system.mem_ctrls.dram.perBankRdBursts::11        18336                       # Per bank write bursts
system.mem_ctrls.dram.perBankRdBursts::12        18376                       # Per bank write bursts
system.mem_ctrls.dram.perBankRdBursts::13        18340                       # Per bank write bursts
system.mem_ctrls.dram.perBankRdBursts::14        18288                       # Per bank write bursts
system.mem_ctrls.dram.perBankRdBursts::15        18232                       # Per bank write bursts
system.mem_ctrls.dram.perBankWrBursts::0        10028                       # Per bank write bursts
system.mem_ctrls.dram.perBankWrBursts::1        10112                       # Per bank write bursts
system.mem_ctrls.dram.perBankWrBursts::2        10140                       # Per bank write bursts
system.mem_ctrls.dram.perBankWrBursts::3        10180                       # Per bank write bursts
system.mem_ctrls.dram.perBankWrBursts::4        10164                       # Per bank write bursts
system.mem_ctrls.dram.perBankWrBursts::5        10132                       # Per bank write bursts
system.mem_ctrls.dram.perBankWrBursts::6        10140                       # Per bank write bursts
system.mem_ctrls.dram.perBankWrBursts::7        10056                       # Per bank write bursts
system.mem_ctrls.dram.perBankWrBursts::8        10053                       # Per bank write bursts
system.mem_ctrls.dram.perBankWrBursts::9         9896                       # Per bank write bursts
system.mem_ctrls.dram.perBankWrBursts::10         9988                       # Per bank write bursts
system.mem_ctrls.dram.perBankWrBursts::11         9984                       # Per bank write bursts
system.mem_ctrls.dram.perBankWrBursts::12         9984                       # Per bank write bursts
system.mem_ctrls.dram.perBankWrBursts::13         9984                       # Per bank write bursts
system.mem_ctrls.dram.perBankWrBursts::14         9984                       # Per bank write bursts
system.mem_ctrls.dram.perBankWrBursts::15         9984                       # Per bank write bursts
system.mem_ctrls.dram.totQLat             11412152000                       # Total ticks spent queuing
system.mem_ctrls.dram.totBusLat            1467260000                       # Total ticks spent in databus transfers
system.mem_ctrls.dram.totMemAccLat        16914377000                       # Total ticks spent from burst creation until serviced by the DRAM
system.mem_ctrls.dram.avgQLat                38889.33                       # Average queueing delay per DRAM burst
system.mem_ctrls.dram.avgBusLat               5000.00                       # Average bus latency per DRAM burst
system.mem_ctrls.dram.avgMemAccLat           57639.33                       # Average memory access latency per DRAM burst
system.mem_ctrls.dram.readRowHits              264570                       # Number of row buffer hits during reads
system.mem_ctrls.dram.writeRowHits             144343                       # Number of row buffer hits during writes
system.mem_ctrls.dram.readRowHitRate            90.16                       # Row buffer hit rate for reads
system.mem_ctrls.dram.writeRowHitRate           89.76                       # Row buffer hit rate for writes
system.mem_ctrls.dram.bytesPerActivate::samples        45348                       # Bytes accessed per row activation
system.mem_ctrls.dram.bytesPerActivate::mean   641.102232                       # Bytes accessed per row activation
system.mem_ctrls.dram.bytesPerActivate::gmean   531.389017                       # Bytes accessed per row activation
system.mem_ctrls.dram.bytesPerActivate::stdev   341.840421                       # Bytes accessed per row activation
system.mem_ctrls.dram.bytesPerActivate::0-127          729      1.61%      1.61% # Bytes accessed per row activation
system.mem_ctrls.dram.bytesPerActivate::128-255          817      1.80%      3.41% # Bytes accessed per row activation
system.mem_ctrls.dram.bytesPerActivate::256-383        14390     31.73%     35.14% # Bytes accessed per row activation
system.mem_ctrls.dram.bytesPerActivate::384-511         1366      3.01%     38.15% # Bytes accessed per row activation
system.mem_ctrls.dram.bytesPerActivate::512-639         5635     12.43%     50.58% # Bytes accessed per row activation
system.mem_ctrls.dram.bytesPerActivate::640-767         1166      2.57%     53.15% # Bytes accessed per row activation
system.mem_ctrls.dram.bytesPerActivate::768-895         3505      7.73%     60.88% # Bytes accessed per row activation
system.mem_ctrls.dram.bytesPerActivate::896-1023          532      1.17%     62.05% # Bytes accessed per row activation
system.mem_ctrls.dram.bytesPerActivate::1024-1151        17208     37.95%    100.00% # Bytes accessed per row activation
system.mem_ctrls.dram.bytesPerActivate::total        45348                       # Bytes accessed per row activation
system.mem_ctrls.dram.bytesRead              18780928                       # Total number of bytes read from DRAM
system.mem_ctrls.dram.bytesWritten           10291776                       # Total number of bytes written to DRAM
system.mem_ctrls.dram.avgRdBW              237.145776                       # Average DRAM read bandwidth in MiBytes/s
system.mem_ctrls.dram.avgWrBW              129.953707                       # Average DRAM write bandwidth in MiBytes/s
system.mem_ctrls.dram.peakBW                 12800.00                       # Theoretical peak bandwidth in MiByte/s
system.mem_ctrls.dram.busUtil                    2.87                       # Data bus utilization in percentage
system.mem_ctrls.dram.busUtilRead                1.85                       # Data bus utilization in percentage for reads
system.mem_ctrls.dram.busUtilWrite               1.02                       # Data bus utilization in percentage for writes
system.mem_ctrls.dram.pageHitRate               90.02                       # Row buffer hit rate, read and write combined
system.mem_ctrls.dram.power_state.pwrStateResidencyTicks::UNDEFINED  79195709500                       # Cumulative time (in ticks) in various power states
system.mem_ctrls.dram.rank0.actEnergy       164527020                       # Energy for activate commands per rank (pJ)
system.mem_ctrls.dram.rank0.preEnergy        87448185                       # Energy for precharge commands per rank (pJ)
system.mem_ctrls.dram.rank0.readEnergy     1050436800                       # Energy for read commands per rank (pJ)
system.mem_ctrls.dram.rank0.writeEnergy     422569440                       # Energy for write commands per rank (pJ)
system.mem_ctrls.dram.rank0.refreshEnergy 6251503440.000001                       # Energy for refresh commands per rank (pJ)
system.mem_ctrls.dram.rank0.actBackEnergy  11231541630                       # Energy for active background per rank (pJ)
system.mem_ctrls.dram.rank0.preBackEnergy  20953012320                       # Energy for precharge background per rank (pJ)
system.mem_ctrls.dram.rank0.actPowerDownEnergy            0                       # Energy for active power-down per rank (pJ)
system.mem_ctrls.dram.rank0.prePowerDownEnergy            0                       # Energy for precharge power-down per rank (pJ)
system.mem_ctrls.dram.rank0.selfRefreshEnergy            0                       # Energy for self refresh per rank (pJ)
system.mem_ctrls.dram.rank0.totalEnergy   40161038835                       # Total energy per rank (pJ)
system.mem_ctrls.dram.rank0.averagePower   507.111295                       # Core power per rank (mW)
system.mem_ctrls.dram.rank0.totalIdleTime            0                       # Total Idle time Per DRAM Rank
system.mem_ctrls.dram.rank0.pwrStateTime::IDLE  54324498250                       # Time in different power states
system.mem_ctrls.dram.rank0.pwrStateTime::REF   2644460000                       # Time in different power states
system.mem_ctrls.dram.rank0.pwrStateTime::SREF            0                       # Time in different power states
system.mem_ctrls.dram.rank0.pwrStateTime::PRE_PDN            0                       # Time in different power states
system.mem_ctrls.dram.rank0.pwrStateTime::ACT  22226751250                       # Time in different power states
system.mem_ctrls.dram.rank0.pwrStateTime::ACT_PDN            0                       # Time in different power states
system.mem_ctrls.dram.rank1.actEnergy       159257700                       # Energy for activate commands per rank (pJ)
system.mem_ctrls.dram.rank1.preEnergy        84647475                       # Energy for precharge commands per rank (pJ)
system.mem_ctrls.dram.rank1.readEnergy     1044810480                       # Energy for read commands per rank (pJ)
system.mem_ctrls.dram.rank1.writeEnergy     416853540                       # Energy for write commands per rank (pJ)
system.mem_ctrls.dram.rank1.refreshEnergy 6251503440.000001                       # Energy for refresh commands per rank (pJ)
system.mem_ctrls.dram.rank1.actBackEnergy  10842811320                       # Energy for active background per rank (pJ)
system.mem_ctrls.dram.rank1.preBackEnergy  21280364160                       # Energy for precharge background per rank (pJ)
system.mem_ctrls.dram.rank1.actPowerDownEnergy            0                       # Energy for active power-down per rank (pJ)
system.mem_ctrls.dram.rank1.prePowerDownEnergy            0                       # Energy for precharge power-down per rank (pJ)
system.mem_ctrls.dram.rank1.selfRefreshEnergy            0                       # Energy for self refresh per rank (pJ)
system.mem_ctrls.dram.rank1.totalEnergy   40080248115                       # Total energy per rank (pJ)
system.mem_ctrls.dram.rank1.averagePower   506.091155                       # Core power per rank (mW)
system.mem_ctrls.dram.rank1.totalIdleTime            0                       # Total Idle time Per DRAM Rank
system.mem_ctrls.dram.rank1.pwrStateTime::IDLE  55178658250                       # Time in different power states
system.mem_ctrls.dram.rank1.pwrStateTime::REF   2644460000                       # Time in different power states
system.mem_ctrls.dram.rank1.pwrStateTime::SREF            0                       # Time in different power states
system.mem_ctrls.dram.rank1.pwrStateTime::PRE_PDN            0                       # Time in different power states
system.mem_ctrls.dram.rank1.pwrStateTime::ACT  21372591250                       # Time in different power states
system.mem_ctrls.dram.rank1.pwrStateTime::ACT_PDN            0                       # Time in different power states
system.mem_ctrls.power_state.pwrStateResidencyTicks::UNDEFINED  79195709500                       # Cumulative time (in ticks) in various power states
system.membus.trans_dist::ReadResp              18387                       # Transaction distribution
system.membus.trans_dist::WritebackDirty        40206                       # Transaction distribution
system.membus.trans_dist::CleanEvict            16534                       # Transaction distribution
system.membus.trans_dist::ReadExReq             54976                       # Transaction distribution
system.membus.trans_dist::ReadExResp            54976                       # Transaction distribution
system.membus.trans_dist::ReadSharedReq         18387                       # Transaction distribution
system.membus.pkt_count_system.l2.mem_side_port::system.mem_ctrls.port       203466                       # Packet count per connected requestor and responder (bytes)
system.membus.pkt_count::total                 203466                       # Packet count per connected requestor and responder (bytes)
system.membus.pkt_size_system.l2.mem_side_port::system.mem_ctrls.port     29073664                       # Cumulative packet size per connected requestor and responder (bytes)
system.membus.pkt_size::total                29073664                       # Cumulative packet size per connected requestor and responder (bytes)
system.membus.snoops                                0                       # Total snoops (count)
system.membus.snoopTraffic                          0                       # Total snoop traffic (bytes)
system.membus.snoop_fanout::samples             73363                       # Request fanout histogram
system.membus.snoop_fanout::mean                    0                       # Request fanout histogram
system.membus.snoop_fanout::stdev                   0                       # Request fanout histogram
system.membus.snoop_fanout::underflows              0      0.00%      0.00% # Request fanout histogram
system.membus.snoop_fanout::0                   73363    100.00%    100.00% # Request fanout histogram
system.membus.snoop_fanout::1                       0      0.00%    100.00% # Request fanout histogram
system.membus.snoop_fanout::overflows               0      0.00%    100.00% # Request fanout histogram
system.membus.snoop_fanout::min_value               0                       # Request fanout histogram
system.membus.snoop_fanout::max_value               0                       # Request fanout histogram
system.membus.snoop_fanout::total               73363                       # Request fanout histogram
system.membus.power_state.pwrStateResidencyTicks::UNDEFINED  79195709500                       # Cumulative time (in ticks) in various power states
system.membus.reqLayer0.occupancy           792869000                       # Layer occupancy (ticks)
system.membus.reqLayer0.utilization               1.0                       # Layer utilization (%)
system.membus.respLayer1.occupancy         1275808000                       # Layer occupancy (ticks)
system.membus.respLayer1.utilization              1.6                       # Layer utilization (%)
system.tol2bus.trans_dist::ReadResp            214267                       # Transaction distribution
system.tol2bus.trans_dist::WritebackDirty       460973                       # Transaction distribution
system.tol2bus.trans_dist::WritebackClean            7                       # Transaction distribution
system.tol2bus.trans_dist::CleanEvict           37564                       # Transaction distribution
system.tol2bus.trans_dist::ReadExReq           228076                       # Transaction distribution
system.tol2bus.trans_dist::ReadExResp          228076                       # Transaction distribution
system.tol2bus.trans_dist::ReadCleanReq           279                       # Transaction distribution
system.tol2bus.trans_dist::ReadSharedReq       213988                       # Transaction distribution
system.tol2bus.pkt_count_system.cpu.icache.mem_side_port::system.l2.cpu_side_port          565                       # Packet count per connected requestor and responder (bytes)
system.tol2bus.pkt_count_system.cpu.dcache.mem_side_port::system.l2.cpu_side_port      1325680                       # Packet count per connected requestor and responder (bytes)
system.tol2bus.pkt_count::total               1326245                       # Packet count per connected requestor and responder (bytes)
system.tol2bus.pkt_size_system.cpu.icache.mem_side_port::system.l2.cpu_side_port        73216                       # Cumulative packet size per connected requestor and responder (bytes)
system.tol2bus.pkt_size_system.cpu.dcache.mem_side_port::system.l2.cpu_side_port    220884736                       # Cumulative packet size per connected requestor and responder (bytes)
system.tol2bus.pkt_size::total              220957952                       # Cumulative packet size per connected requestor and responder (bytes)
system.tol2bus.snoops                           56985                       # Total snoops (count)
system.tol2bus.snoopTraffic                  10292736                       # Total snoop traffic (bytes)
system.tol2bus.snoop_fanout::samples           499328                       # Request fanout histogram
system.tol2bus.snoop_fanout::mean            0.000709                       # Request fanout histogram
system.tol2bus.snoop_fanout::stdev           0.026617                       # Request fanout histogram
system.tol2bus.snoop_fanout::underflows             0      0.00%      0.00% # Request fanout histogram
system.tol2bus.snoop_fanout::0                 498974     99.93%     99.93% # Request fanout histogram
system.tol2bus.snoop_fanout::1                    354      0.07%    100.00% # Request fanout histogram
system.tol2bus.snoop_fanout::2                      0      0.00%    100.00% # Request fanout histogram
system.tol2bus.snoop_fanout::overflows              0      0.00%    100.00% # Request fanout histogram
system.tol2bus.snoop_fanout::min_value              0                       # Request fanout histogram
system.tol2bus.snoop_fanout::max_value              1                       # Request fanout histogram
system.tol2bus.snoop_fanout::total             499328                       # Request fanout histogram
system.tol2bus.power_state.pwrStateResidencyTicks::UNDEFINED  79195709500                       # Cumulative time (in ticks) in various power states
system.tol2bus.reqLayer0.occupancy         2125047000                       # Layer occupancy (ticks)
system.tol2bus.reqLayer0.utilization              2.7                       # Layer utilization (%)
system.tol2bus.respLayer0.occupancy           1256498                       # Layer occupancy (ticks)
system.tol2bus.respLayer0.utilization             0.0                       # Layer utilization (%)
system.tol2bus.respLayer1.occupancy        1989289996                       # Layer occupancy (ticks)
system.tol2bus.respLayer1.utilization             2.5                       # Layer utilization (%)
system.voltage_domain.voltage                       1                       # Voltage in Volts

---------- End Simulation Statistics   ----------
