
---------- Begin Simulation Statistics ----------
final_tick                                90591069500                       # Number of ticks from beginning of simulation (restored from checkpoints and never reset)
host_inst_rate                                 149184                       # Simulator instruction rate (inst/s)
host_mem_usage                                 653580                       # Number of bytes of host memory used
host_op_rate                                   149477                       # Simulator op (including micro ops) rate (op/s)
host_seconds                                   670.31                       # Real time elapsed on the host
host_tick_rate                              135147373                       # Simulator tick rate (ticks/s)
sim_freq                                 1000000000000                       # Frequency of simulated ticks
sim_insts                                   100000001                       # Number of instructions simulated
sim_ops                                     100196356                       # Number of ops (including micro ops) simulated
sim_seconds                                  0.090591                       # Number of seconds simulated
sim_ticks                                 90591069500                       # Number of ticks simulated
system.cpu.committedInsts                   100000001                       # Number of instructions committed
system.cpu.committedOps                     100196356                       # Number of ops (including micro ops) committed
system.cpu.cpi                               1.811821                       # CPI: cycles per instruction
system.cpu.discardedOps                        189654                       # Number of ops (including micro ops) which were discarded before commit
system.cpu.idleCycles                        47892376                       # Total number of cycles that the object has spent stopped
system.cpu.ipc                               0.551931                       # IPC: instructions per cycle
system.cpu.numCycles                        181182139                       # number of cpu cycles simulated
system.cpu.numFetchSuspends                         0                       # Number of times Execute suspended instruction fetching
system.cpu.numWorkItemsCompleted                    0                       # number of work items this cpu completed
system.cpu.numWorkItemsStarted                      0                       # number of work items this cpu started
system.cpu.op_class_0::No_OpClass                   0      0.00%      0.00% # Class of committed instruction
system.cpu.op_class_0::IntAlu                46526863     46.44%     46.44% # Class of committed instruction
system.cpu.op_class_0::IntMult                  20723      0.02%     46.46% # Class of committed instruction
system.cpu.op_class_0::IntDiv                       0      0.00%     46.46% # Class of committed instruction
system.cpu.op_class_0::FloatAdd                     0      0.00%     46.46% # Class of committed instruction
system.cpu.op_class_0::FloatCmp                     0      0.00%     46.46% # Class of committed instruction
system.cpu.op_class_0::FloatCvt                     0      0.00%     46.46% # Class of committed instruction
system.cpu.op_class_0::FloatMult                    0      0.00%     46.46% # Class of committed instruction
system.cpu.op_class_0::FloatMultAcc                 0      0.00%     46.46% # Class of committed instruction
system.cpu.op_class_0::FloatDiv                     0      0.00%     46.46% # Class of committed instruction
system.cpu.op_class_0::FloatMisc                    0      0.00%     46.46% # Class of committed instruction
system.cpu.op_class_0::FloatSqrt                    0      0.00%     46.46% # Class of committed instruction
system.cpu.op_class_0::SimdAdd                      0      0.00%     46.46% # Class of committed instruction
system.cpu.op_class_0::SimdAddAcc                   0      0.00%     46.46% # Class of committed instruction
system.cpu.op_class_0::SimdAlu                      0      0.00%     46.46% # Class of committed instruction
system.cpu.op_class_0::SimdCmp                      0      0.00%     46.46% # Class of committed instruction
system.cpu.op_class_0::SimdCvt                      0      0.00%     46.46% # Class of committed instruction
system.cpu.op_class_0::SimdMisc                     0      0.00%     46.46% # Class of committed instruction
system.cpu.op_class_0::SimdMult                     0      0.00%     46.46% # Class of committed instruction
system.cpu.op_class_0::SimdMultAcc                  0      0.00%     46.46% # Class of committed instruction
system.cpu.op_class_0::SimdShift                    0      0.00%     46.46% # Class of committed instruction
system.cpu.op_class_0::SimdShiftAcc                 0      0.00%     46.46% # Class of committed instruction
system.cpu.op_class_0::SimdDiv                      0      0.00%     46.46% # Class of committed instruction
system.cpu.op_class_0::SimdSqrt                     0      0.00%     46.46% # Class of committed instruction
system.cpu.op_class_0::SimdFloatAdd                 0      0.00%     46.46% # Class of committed instruction
system.cpu.op_class_0::SimdFloatAlu                 0      0.00%     46.46% # Class of committed instruction
system.cpu.op_class_0::SimdFloatCmp                 0      0.00%     46.46% # Class of committed instruction
system.cpu.op_class_0::SimdFloatCvt                 0      0.00%     46.46% # Class of committed instruction
system.cpu.op_class_0::SimdFloatDiv                 0      0.00%     46.46% # Class of committed instruction
system.cpu.op_class_0::SimdFloatMisc               18      0.00%     46.46% # Class of committed instruction
system.cpu.op_class_0::SimdFloatMult                0      0.00%     46.46% # Class of committed instruction
system.cpu.op_class_0::SimdFloatMultAcc             0      0.00%     46.46% # Class of committed instruction
system.cpu.op_class_0::SimdFloatSqrt                0      0.00%     46.46% # Class of committed instruction
system.cpu.op_class_0::SimdReduceAdd                0      0.00%     46.46% # Class of committed instruction
system.cpu.op_class_0::SimdReduceAlu                0      0.00%     46.46% # Class of committed instruction
system.cpu.op_class_0::SimdReduceCmp                0      0.00%     46.46% # Class of committed instruction
system.cpu.op_class_0::SimdFloatReduceAdd            0      0.00%     46.46% # Class of committed instruction
system.cpu.op_class_0::SimdFloatReduceCmp            0      0.00%     46.46% # Class of committed instruction
system.cpu.op_class_0::SimdAes                      0      0.00%     46.46% # Class of committed instruction
system.cpu.op_class_0::SimdAesMix                   0      0.00%     46.46% # Class of committed instruction
system.cpu.op_class_0::SimdSha1Hash                 0      0.00%     46.46% # Class of committed instruction
system.cpu.op_class_0::SimdSha1Hash2                0      0.00%     46.46% # Class of committed instruction
system.cpu.op_class_0::SimdSha256Hash               0      0.00%     46.46% # Class of committed instruction
system.cpu.op_class_0::SimdSha256Hash2              0      0.00%     46.46% # Class of committed instruction
system.cpu.op_class_0::SimdShaSigma2                0      0.00%     46.46% # Class of committed instruction
system.cpu.op_class_0::SimdShaSigma3                0      0.00%     46.46% # Class of committed instruction
system.cpu.op_class_0::SimdPredAlu                  0      0.00%     46.46% # Class of committed instruction
system.cpu.op_class_0::MemRead               42690537     42.61%     89.06% # Class of committed instruction
system.cpu.op_class_0::MemWrite              10958215     10.94%    100.00% # Class of committed instruction
system.cpu.op_class_0::FloatMemRead                 0      0.00%    100.00% # Class of committed instruction
system.cpu.op_class_0::FloatMemWrite                0      0.00%    100.00% # Class of committed instruction
system.cpu.op_class_0::IprAccess                    0      0.00%    100.00% # Class of committed instruction
system.cpu.op_class_0::InstPrefetch                 0      0.00%    100.00% # Class of committed instruction
system.cpu.op_class_0::total                100196356                       # Class of committed instruction
system.cpu.tickCycles                       133289763                       # Number of cycles that the object actually ticked
system.cpu.workload.numSyscalls                    85                       # Number of system calls
system.membus.snoop_filter.hit_multi_requests            0                       # Number of requests hitting in the snoop filter with multiple (>1) holders of the requested data.
system.membus.snoop_filter.hit_multi_snoops            0                       # Number of snoops hitting in the snoop filter with multiple (>1) holders of the requested data.
system.membus.snoop_filter.hit_single_requests       267488                       # Number of requests hitting in the snoop filter with a single holder of the requested data.
system.membus.snoop_filter.hit_single_snoops            0                       # Number of snoops hitting in the snoop filter with a single holder of the requested data.
system.membus.snoop_filter.tot_requests        543663                       # Total number of requests made to the snoop filter.
system.membus.snoop_filter.tot_snoops               0                       # Total number of snoops made to the snoop filter.
system.tol2bus.snoop_filter.hit_multi_requests         1295                       # Number of requests hitting in the snoop filter with multiple (>1) holders of the requested data.
system.tol2bus.snoop_filter.hit_multi_snoops            0                       # Number of snoops hitting in the snoop filter with multiple (>1) holders of the requested data.
system.tol2bus.snoop_filter.hit_single_requests       987095                       # Number of requests hitting in the snoop filter with a single holder of the requested data.
system.tol2bus.snoop_filter.hit_single_snoops          595                       # Number of snoops hitting in the snoop filter with a single holder of the requested data.
system.tol2bus.snoop_filter.tot_requests      1975205                       # Total number of requests made to the snoop filter.
system.tol2bus.snoop_filter.tot_snoops            595                       # Total number of snoops made to the snoop filter.
system.clk_domain.clock                          1000                       # Clock period in ticks
system.cpu.branchPred.lookups                 4485879                       # Number of BP lookups
system.cpu.branchPred.condPredicted           3735521                       # Number of conditional branches predicted
system.cpu.branchPred.condIncorrect             81006                       # Number of conditional branches incorrect
system.cpu.branchPred.BTBLookups              2103877                       # Number of BTB lookups
system.cpu.branchPred.BTBHits                 2101879                       # Number of BTB hits
system.cpu.branchPred.BTBHitPct             99.905032                       # BTB Hit Percentage
system.cpu.branchPred.RASUsed                   65391                       # Number of times the RAS was used to get a target.
system.cpu.branchPred.RASIncorrect                 14                       # Number of incorrect RAS predictions.
system.cpu.branchPred.indirectLookups             700                       # Number of indirect predictor lookups.
system.cpu.branchPred.indirectHits                289                       # Number of indirect target hits.
system.cpu.branchPred.indirectMisses              411                       # Number of indirect misses.
system.cpu.branchPred.indirectMispredicted          171                       # Number of mispredicted indirect branches.
system.cpu.dcache.demand_hits::.cpu.data     51030436                       # number of demand (read+write) hits
system.cpu.dcache.demand_hits::total         51030436                       # number of demand (read+write) hits
system.cpu.dcache.overall_hits::.cpu.data     51030860                       # number of overall hits
system.cpu.dcache.overall_hits::total        51030860                       # number of overall hits
system.cpu.dcache.demand_misses::.cpu.data      1047260                       # number of demand (read+write) misses
system.cpu.dcache.demand_misses::total        1047260                       # number of demand (read+write) misses
system.cpu.dcache.overall_misses::.cpu.data      1055254                       # number of overall misses
system.cpu.dcache.overall_misses::total       1055254                       # number of overall misses
system.cpu.dcache.demand_miss_latency::.cpu.data  35244123988                       # number of demand (read+write) miss cycles
system.cpu.dcache.demand_miss_latency::total  35244123988                       # number of demand (read+write) miss cycles
system.cpu.dcache.overall_miss_latency::.cpu.data  35244123988                       # number of overall miss cycles
system.cpu.dcache.overall_miss_latency::total  35244123988                       # number of overall miss cycles
system.cpu.dcache.demand_accesses::.cpu.data     52077696                       # number of demand (read+write) accesses
system.cpu.dcache.demand_accesses::total     52077696                       # number of demand (read+write) accesses
system.cpu.dcache.overall_accesses::.cpu.data     52086114                       # number of overall (read+write) accesses
system.cpu.dcache.overall_accesses::total     52086114                       # number of overall (read+write) accesses
system.cpu.dcache.demand_miss_rate::.cpu.data     0.020110                       # miss rate for demand accesses
system.cpu.dcache.demand_miss_rate::total     0.020110                       # miss rate for demand accesses
system.cpu.dcache.overall_miss_rate::.cpu.data     0.020260                       # miss rate for overall accesses
system.cpu.dcache.overall_miss_rate::total     0.020260                       # miss rate for overall accesses
system.cpu.dcache.demand_avg_miss_latency::.cpu.data 33653.652377                       # average overall miss latency
system.cpu.dcache.demand_avg_miss_latency::total 33653.652377                       # average overall miss latency
system.cpu.dcache.overall_avg_miss_latency::.cpu.data 33398.711578                       # average overall miss latency
system.cpu.dcache.overall_avg_miss_latency::total 33398.711578                       # average overall miss latency
system.cpu.dcache.blocked_cycles::no_mshrs       204484                       # number of cycles access was blocked
system.cpu.dcache.blocked_cycles::no_targets            0                       # number of cycles access was blocked
system.cpu.dcache.blocked::no_mshrs              4436                       # number of cycles access was blocked
system.cpu.dcache.blocked::no_targets               0                       # number of cycles access was blocked
system.cpu.dcache.avg_blocked_cycles::no_mshrs    46.096483                       # average number of cycles each access was blocked
system.cpu.dcache.avg_blocked_cycles::no_targets          nan                       # average number of cycles each access was blocked
system.cpu.dcache.writebacks::.writebacks       876450                       # number of writebacks
system.cpu.dcache.writebacks::total            876450                       # number of writebacks
system.cpu.dcache.demand_mshr_hits::.cpu.data        67877                       # number of demand (read+write) MSHR hits
system.cpu.dcache.demand_mshr_hits::total        67877                       # number of demand (read+write) MSHR hits
system.cpu.dcache.overall_mshr_hits::.cpu.data        67877                       # number of overall MSHR hits
system.cpu.dcache.overall_mshr_hits::total        67877                       # number of overall MSHR hits
system.cpu.dcache.demand_mshr_misses::.cpu.data       979383                       # number of demand (read+write) MSHR misses
system.cpu.dcache.demand_mshr_misses::total       979383                       # number of demand (read+write) MSHR misses
system.cpu.dcache.overall_mshr_misses::.cpu.data       987373                       # number of overall MSHR misses
system.cpu.dcache.overall_mshr_misses::total       987373                       # number of overall MSHR misses
system.cpu.dcache.demand_mshr_miss_latency::.cpu.data  32545359491                       # number of demand (read+write) MSHR miss cycles
system.cpu.dcache.demand_mshr_miss_latency::total  32545359491                       # number of demand (read+write) MSHR miss cycles
system.cpu.dcache.overall_mshr_miss_latency::.cpu.data  33164217990                       # number of overall MSHR miss cycles
system.cpu.dcache.overall_mshr_miss_latency::total  33164217990                       # number of overall MSHR miss cycles
system.cpu.dcache.demand_mshr_miss_rate::.cpu.data     0.018806                       # mshr miss rate for demand accesses
system.cpu.dcache.demand_mshr_miss_rate::total     0.018806                       # mshr miss rate for demand accesses
system.cpu.dcache.overall_mshr_miss_rate::.cpu.data     0.018957                       # mshr miss rate for overall accesses
system.cpu.dcache.overall_mshr_miss_rate::total     0.018957                       # mshr miss rate for overall accesses
system.cpu.dcache.demand_avg_mshr_miss_latency::.cpu.data 33230.472135                       # average overall mshr miss latency
system.cpu.dcache.demand_avg_mshr_miss_latency::total 33230.472135                       # average overall mshr miss latency
system.cpu.dcache.overall_avg_mshr_miss_latency::.cpu.data 33588.337933                       # average overall mshr miss latency
system.cpu.dcache.overall_avg_mshr_miss_latency::total 33588.337933                       # average overall mshr miss latency
system.cpu.dcache.replacements                 986861                       # number of replacements
system.cpu.dcache.ReadReq_hits::.cpu.data     40530028                       # number of ReadReq hits
system.cpu.dcache.ReadReq_hits::total        40530028                       # number of ReadReq hits
system.cpu.dcache.ReadReq_misses::.cpu.data       598586                       # number of ReadReq misses
system.cpu.dcache.ReadReq_misses::total        598586                       # number of ReadReq misses
system.cpu.dcache.ReadReq_miss_latency::.cpu.data  15304748495                       # number of ReadReq miss cycles
system.cpu.dcache.ReadReq_miss_latency::total  15304748495                       # number of ReadReq miss cycles
system.cpu.dcache.ReadReq_accesses::.cpu.data     41128614                       # number of ReadReq accesses(hits+misses)
system.cpu.dcache.ReadReq_accesses::total     41128614                       # number of ReadReq accesses(hits+misses)
system.cpu.dcache.ReadReq_miss_rate::.cpu.data     0.014554                       # miss rate for ReadReq accesses
system.cpu.dcache.ReadReq_miss_rate::total     0.014554                       # miss rate for ReadReq accesses
system.cpu.dcache.ReadReq_avg_miss_latency::.cpu.data 25568.169812                       # average ReadReq miss latency
system.cpu.dcache.ReadReq_avg_miss_latency::total 25568.169812                       # average ReadReq miss latency
system.cpu.dcache.ReadReq_mshr_hits::.cpu.data         3164                       # number of ReadReq MSHR hits
system.cpu.dcache.ReadReq_mshr_hits::total         3164                       # number of ReadReq MSHR hits
system.cpu.dcache.ReadReq_mshr_misses::.cpu.data       595422                       # number of ReadReq MSHR misses
system.cpu.dcache.ReadReq_mshr_misses::total       595422                       # number of ReadReq MSHR misses
system.cpu.dcache.ReadReq_mshr_miss_latency::.cpu.data  14636813995                       # number of ReadReq MSHR miss cycles
system.cpu.dcache.ReadReq_mshr_miss_latency::total  14636813995                       # number of ReadReq MSHR miss cycles
system.cpu.dcache.ReadReq_mshr_miss_rate::.cpu.data     0.014477                       # mshr miss rate for ReadReq accesses
system.cpu.dcache.ReadReq_mshr_miss_rate::total     0.014477                       # mshr miss rate for ReadReq accesses
system.cpu.dcache.ReadReq_avg_mshr_miss_latency::.cpu.data 24582.252579                       # average ReadReq mshr miss latency
system.cpu.dcache.ReadReq_avg_mshr_miss_latency::total 24582.252579                       # average ReadReq mshr miss latency
system.cpu.dcache.WriteReq_hits::.cpu.data     10500408                       # number of WriteReq hits
system.cpu.dcache.WriteReq_hits::total       10500408                       # number of WriteReq hits
system.cpu.dcache.WriteReq_misses::.cpu.data       448674                       # number of WriteReq misses
system.cpu.dcache.WriteReq_misses::total       448674                       # number of WriteReq misses
system.cpu.dcache.WriteReq_miss_latency::.cpu.data  19939375493                       # number of WriteReq miss cycles
system.cpu.dcache.WriteReq_miss_latency::total  19939375493                       # number of WriteReq miss cycles
system.cpu.dcache.WriteReq_accesses::.cpu.data     10949082                       # number of WriteReq accesses(hits+misses)
system.cpu.dcache.WriteReq_accesses::total     10949082                       # number of WriteReq accesses(hits+misses)
system.cpu.dcache.WriteReq_miss_rate::.cpu.data     0.040978                       # miss rate for WriteReq accesses
system.cpu.dcache.WriteReq_miss_rate::total     0.040978                       # miss rate for WriteReq accesses
system.cpu.dcache.WriteReq_avg_miss_latency::.cpu.data 44440.675174                       # average WriteReq miss latency
system.cpu.dcache.WriteReq_avg_miss_latency::total 44440.675174                       # average WriteReq miss latency
system.cpu.dcache.WriteReq_mshr_hits::.cpu.data        64713                       # number of WriteReq MSHR hits
system.cpu.dcache.WriteReq_mshr_hits::total        64713                       # number of WriteReq MSHR hits
system.cpu.dcache.WriteReq_mshr_misses::.cpu.data       383961                       # number of WriteReq MSHR misses
system.cpu.dcache.WriteReq_mshr_misses::total       383961                       # number of WriteReq MSHR misses
system.cpu.dcache.WriteReq_mshr_miss_latency::.cpu.data  17908545496                       # number of WriteReq MSHR miss cycles
system.cpu.dcache.WriteReq_mshr_miss_latency::total  17908545496                       # number of WriteReq MSHR miss cycles
system.cpu.dcache.WriteReq_mshr_miss_rate::.cpu.data     0.035068                       # mshr miss rate for WriteReq accesses
system.cpu.dcache.WriteReq_mshr_miss_rate::total     0.035068                       # mshr miss rate for WriteReq accesses
system.cpu.dcache.WriteReq_avg_mshr_miss_latency::.cpu.data 46641.574264                       # average WriteReq mshr miss latency
system.cpu.dcache.WriteReq_avg_mshr_miss_latency::total 46641.574264                       # average WriteReq mshr miss latency
system.cpu.dcache.SoftPFReq_hits::.cpu.data          424                       # number of SoftPFReq hits
system.cpu.dcache.SoftPFReq_hits::total           424                       # number of SoftPFReq hits
system.cpu.dcache.SoftPFReq_misses::.cpu.data         7994                       # number of SoftPFReq misses
system.cpu.dcache.SoftPFReq_misses::total         7994                       # number of SoftPFReq misses
system.cpu.dcache.SoftPFReq_accesses::.cpu.data         8418                       # number of SoftPFReq accesses(hits+misses)
system.cpu.dcache.SoftPFReq_accesses::total         8418                       # number of SoftPFReq accesses(hits+misses)
system.cpu.dcache.SoftPFReq_miss_rate::.cpu.data     0.949632                       # miss rate for SoftPFReq accesses
system.cpu.dcache.SoftPFReq_miss_rate::total     0.949632                       # miss rate for SoftPFReq accesses
system.cpu.dcache.SoftPFReq_mshr_misses::.cpu.data         7990                       # number of SoftPFReq MSHR misses
system.cpu.dcache.SoftPFReq_mshr_misses::total         7990                       # number of SoftPFReq MSHR misses
system.cpu.dcache.SoftPFReq_mshr_miss_latency::.cpu.data    618858499                       # number of SoftPFReq MSHR miss cycles
system.cpu.dcache.SoftPFReq_mshr_miss_latency::total    618858499                       # number of SoftPFReq MSHR miss cycles
system.cpu.dcache.SoftPFReq_mshr_miss_rate::.cpu.data     0.949157                       # mshr miss rate for SoftPFReq accesses
system.cpu.dcache.SoftPFReq_mshr_miss_rate::total     0.949157                       # mshr miss rate for SoftPFReq accesses
system.cpu.dcache.SoftPFReq_avg_mshr_miss_latency::.cpu.data 77454.130038                       # average SoftPFReq mshr miss latency
system.cpu.dcache.SoftPFReq_avg_mshr_miss_latency::total 77454.130038                       # average SoftPFReq mshr miss latency
system.cpu.dcache.LoadLockedReq_hits::.cpu.data           38                       # number of LoadLockedReq hits
system.cpu.dcache.LoadLockedReq_hits::total           38                       # number of LoadLockedReq hits
system.cpu.dcache.LoadLockedReq_accesses::.cpu.data           38                       # number of LoadLockedReq accesses(hits+misses)
system.cpu.dcache.LoadLockedReq_accesses::total           38                       # number of LoadLockedReq accesses(hits+misses)
system.cpu.dcache.StoreCondReq_hits::.cpu.data           38                       # number of StoreCondReq hits
system.cpu.dcache.StoreCondReq_hits::total           38                       # number of StoreCondReq hits
system.cpu.dcache.StoreCondReq_accesses::.cpu.data           38                       # number of StoreCondReq accesses(hits+misses)
system.cpu.dcache.StoreCondReq_accesses::total           38                       # number of StoreCondReq accesses(hits+misses)
system.cpu.dcache.power_state.pwrStateResidencyTicks::UNDEFINED  90591069500                       # Cumulative time (in ticks) in various power states
system.cpu.dcache.tags.tagsinuse           505.612098                       # Cycle average of tags in use
system.cpu.dcache.tags.total_refs            52018309                       # Total number of references to valid blocks.
system.cpu.dcache.tags.sampled_refs            987373                       # Sample count of references to valid blocks.
system.cpu.dcache.tags.avg_refs             52.683544                       # Average number of references to valid blocks.
system.cpu.dcache.tags.warmup_cycle            176500                       # Cycle when the warmup percentage was hit.
system.cpu.dcache.tags.occ_blocks::.cpu.data   505.612098                       # Average occupied blocks per requestor
system.cpu.dcache.tags.occ_percent::.cpu.data     0.987524                       # Average percentage of cache occupancy
system.cpu.dcache.tags.occ_percent::total     0.987524                       # Average percentage of cache occupancy
system.cpu.dcache.tags.occ_task_id_blocks::1024          512                       # Occupied blocks per task id
system.cpu.dcache.tags.age_task_id_blocks_1024::0           72                       # Occupied blocks per task id
system.cpu.dcache.tags.age_task_id_blocks_1024::1          215                       # Occupied blocks per task id
system.cpu.dcache.tags.age_task_id_blocks_1024::2          225                       # Occupied blocks per task id
system.cpu.dcache.tags.occ_task_id_percent::1024            1                       # Percentage of cache occupancy per task id
system.cpu.dcache.tags.tag_accesses          53073563                       # Number of tag accesses
system.cpu.dcache.tags.data_accesses         53073563                       # Number of data accesses
system.cpu.dcache.tags.power_state.pwrStateResidencyTicks::UNDEFINED  90591069500                       # Cumulative time (in ticks) in various power states
system.cpu.dtb.instHits                             0                       # ITB inst hits
system.cpu.dtb.instMisses                           0                       # ITB inst misses
system.cpu.dtb.readHits                             0                       # DTB read hits
system.cpu.dtb.readMisses                           0                       # DTB read misses
system.cpu.dtb.writeHits                            0                       # DTB write hits
system.cpu.dtb.writeMisses                          0                       # DTB write misses
system.cpu.dtb.inserts                              0                       # Number of times an entry is inserted into the TLB
system.cpu.dtb.flushTlb                             0                       # Number of times complete TLB was flushed
system.cpu.dtb.flushTlbMva                          0                       # Number of times TLB was flushed by MVA
system.cpu.dtb.flushTlbMvaAsid                      0                       # Number of times TLB was flushed by MVA & ASID
system.cpu.dtb.flushTlbAsid                         0                       # Number of times TLB was flushed by ASID
system.cpu.dtb.flushedEntries                       0                       # Number of entries that have been flushed from TLB
system.cpu.dtb.alignFaults                          0                       # Number of TLB faults due to alignment restrictions
system.cpu.dtb.prefetchFaults                       0                       # Number of TLB faults due to prefetch
system.cpu.dtb.domainFaults                         0                       # Number of TLB faults due to domain restrictions
system.cpu.dtb.permsFaults                          0                       # Number of TLB faults due to permissions restrictions
system.cpu.dtb.readAccesses                         0                       # DTB read accesses
system.cpu.dtb.writeAccesses                        0                       # DTB write accesses
system.cpu.dtb.instAccesses                         0                       # ITB inst accesses
system.cpu.dtb.hits                                 0                       # Total TLB (inst and data) hits
system.cpu.dtb.misses                               0                       # Total TLB (inst and data) misses
system.cpu.dtb.accesses                             0                       # Total TLB (inst and data) accesses
system.cpu.dtb.stage2_mmu.stage2_tlb.instHits            0                       # ITB inst hits
system.cpu.dtb.stage2_mmu.stage2_tlb.instMisses            0                       # ITB inst misses
system.cpu.dtb.stage2_mmu.stage2_tlb.readHits            0                       # DTB read hits
system.cpu.dtb.stage2_mmu.stage2_tlb.readMisses            0                       # DTB read misses
system.cpu.dtb.stage2_mmu.stage2_tlb.writeHits            0                       # DTB write hits
system.cpu.dtb.stage2_mmu.stage2_tlb.writeMisses            0                       # DTB write misses
system.cpu.dtb.stage2_mmu.stage2_tlb.inserts            0                       # Number of times an entry is inserted into the TLB
system.cpu.dtb.stage2_mmu.stage2_tlb.flushTlb            0                       # Number of times complete TLB was flushed
system.cpu.dtb.stage2_mmu.stage2_tlb.flushTlbMva            0                       # Number of times TLB was flushed by MVA
system.cpu.dtb.stage2_mmu.stage2_tlb.flushTlbMvaAsid            0                       # Number of times TLB was flushed by MVA & ASID
system.cpu.dtb.stage2_mmu.stage2_tlb.flushTlbAsid            0                       # Number of times TLB was flushed by ASID
system.cpu.dtb.stage2_mmu.stage2_tlb.flushedEntries            0                       # Number of entries that have been flushed from TLB
system.cpu.dtb.stage2_mmu.stage2_tlb.alignFaults            0                       # Number of TLB faults due to alignment restrictions
system.cpu.dtb.stage2_mmu.stage2_tlb.prefetchFaults            0                       # Number of TLB faults due to prefetch
system.cpu.dtb.stage2_mmu.stage2_tlb.domainFaults            0                       # Number of TLB faults due to domain restrictions
system.cpu.dtb.stage2_mmu.stage2_tlb.permsFaults            0                       # Number of TLB faults due to permissions restrictions
system.cpu.dtb.stage2_mmu.stage2_tlb.readAccesses            0                       # DTB read accesses
system.cpu.dtb.stage2_mmu.stage2_tlb.writeAccesses            0                       # DTB write accesses
system.cpu.dtb.stage2_mmu.stage2_tlb.instAccesses            0                       # ITB inst accesses
system.cpu.dtb.stage2_mmu.stage2_tlb.hits            0                       # Total TLB (inst and data) hits
system.cpu.dtb.stage2_mmu.stage2_tlb.misses            0                       # Total TLB (inst and data) misses
system.cpu.dtb.stage2_mmu.stage2_tlb.accesses            0                       # Total TLB (inst and data) accesses
system.cpu.dtb.stage2_mmu.stage2_tlb.walker.walks            0                       # Table walker walks requested
system.cpu.dtb.stage2_mmu.stage2_tlb.walker.requestOrigin_Requested::Data            0                       # Table walker requests started/completed, data/inst
system.cpu.dtb.stage2_mmu.stage2_tlb.walker.requestOrigin_Requested::Inst            0                       # Table walker requests started/completed, data/inst
system.cpu.dtb.stage2_mmu.stage2_tlb.walker.requestOrigin_Requested::total            0                       # Table walker requests started/completed, data/inst
system.cpu.dtb.stage2_mmu.stage2_tlb.walker.requestOrigin_Completed::Data            0                       # Table walker requests started/completed, data/inst
system.cpu.dtb.stage2_mmu.stage2_tlb.walker.requestOrigin_Completed::Inst            0                       # Table walker requests started/completed, data/inst
system.cpu.dtb.stage2_mmu.stage2_tlb.walker.requestOrigin_Completed::total            0                       # Table walker requests started/completed, data/inst
system.cpu.dtb.stage2_mmu.stage2_tlb.walker.requestOrigin::total            0                       # Table walker requests started/completed, data/inst
system.cpu.dtb.stage2_mmu.stage2_tlb.walker.power_state.pwrStateResidencyTicks::UNDEFINED  90591069500                       # Cumulative time (in ticks) in various power states
system.cpu.dtb.walker.walks                         0                       # Table walker walks requested
system.cpu.dtb.walker.requestOrigin_Requested::Data            0                       # Table walker requests started/completed, data/inst
system.cpu.dtb.walker.requestOrigin_Requested::Inst            0                       # Table walker requests started/completed, data/inst
system.cpu.dtb.walker.requestOrigin_Requested::total            0                       # Table walker requests started/completed, data/inst
system.cpu.dtb.walker.requestOrigin_Completed::Data            0                       # Table walker requests started/completed, data/inst
system.cpu.dtb.walker.requestOrigin_Completed::Inst            0                       # Table walker requests started/completed, data/inst
system.cpu.dtb.walker.requestOrigin_Completed::total            0                       # Table walker requests started/completed, data/inst
system.cpu.dtb.walker.requestOrigin::total            0                       # Table walker requests started/completed, data/inst
system.cpu.dtb.walker.power_state.pwrStateResidencyTicks::UNDEFINED  90591069500                       # Cumulative time (in ticks) in various power states
system.cpu.fetch2.intInstructions            42686390                       # Number of integer instructions successfully decoded
system.cpu.fetch2.fpInstructions                    0                       # Number of floating point instructions successfully decoded
system.cpu.fetch2.vecInstructions                   0                       # Number of SIMD instructions successfully decoded
system.cpu.fetch2.loadInstructions           43475508                       # Number of memory load instructions successfully decoded
system.cpu.fetch2.storeInstructions          11025097                       # Number of memory store instructions successfully decoded
system.cpu.fetch2.amoInstructions                   0                       # Number of memory atomic instructions successfully decoded
system.cpu.icache.demand_hits::.cpu.inst     10278673                       # number of demand (read+write) hits
system.cpu.icache.demand_hits::total         10278673                       # number of demand (read+write) hits
system.cpu.icache.overall_hits::.cpu.inst     10278673                       # number of overall hits
system.cpu.icache.overall_hits::total        10278673                       # number of overall hits
system.cpu.icache.demand_misses::.cpu.inst          738                       # number of demand (read+write) misses
system.cpu.icache.demand_misses::total            738                       # number of demand (read+write) misses
system.cpu.icache.overall_misses::.cpu.inst          738                       # number of overall misses
system.cpu.icache.overall_misses::total           738                       # number of overall misses
system.cpu.icache.demand_miss_latency::.cpu.inst     54624500                       # number of demand (read+write) miss cycles
system.cpu.icache.demand_miss_latency::total     54624500                       # number of demand (read+write) miss cycles
system.cpu.icache.overall_miss_latency::.cpu.inst     54624500                       # number of overall miss cycles
system.cpu.icache.overall_miss_latency::total     54624500                       # number of overall miss cycles
system.cpu.icache.demand_accesses::.cpu.inst     10279411                       # number of demand (read+write) accesses
system.cpu.icache.demand_accesses::total     10279411                       # number of demand (read+write) accesses
system.cpu.icache.overall_accesses::.cpu.inst     10279411                       # number of overall (read+write) accesses
system.cpu.icache.overall_accesses::total     10279411                       # number of overall (read+write) accesses
system.cpu.icache.demand_miss_rate::.cpu.inst     0.000072                       # miss rate for demand accesses
system.cpu.icache.demand_miss_rate::total     0.000072                       # miss rate for demand accesses
system.cpu.icache.overall_miss_rate::.cpu.inst     0.000072                       # miss rate for overall accesses
system.cpu.icache.overall_miss_rate::total     0.000072                       # miss rate for overall accesses
system.cpu.icache.demand_avg_miss_latency::.cpu.inst 74016.937669                       # average overall miss latency
system.cpu.icache.demand_avg_miss_latency::total 74016.937669                       # average overall miss latency
system.cpu.icache.overall_avg_miss_latency::.cpu.inst 74016.937669                       # average overall miss latency
system.cpu.icache.overall_avg_miss_latency::total 74016.937669                       # average overall miss latency
system.cpu.icache.blocked_cycles::no_mshrs            0                       # number of cycles access was blocked
system.cpu.icache.blocked_cycles::no_targets            0                       # number of cycles access was blocked
system.cpu.icache.blocked::no_mshrs                 0                       # number of cycles access was blocked
system.cpu.icache.blocked::no_targets               0                       # number of cycles access was blocked
system.cpu.icache.avg_blocked_cycles::no_mshrs          nan                       # average number of cycles each access was blocked
system.cpu.icache.avg_blocked_cycles::no_targets          nan                       # average number of cycles each access was blocked
system.cpu.icache.writebacks::.writebacks          233                       # number of writebacks
system.cpu.icache.writebacks::total               233                       # number of writebacks
system.cpu.icache.demand_mshr_misses::.cpu.inst          738                       # number of demand (read+write) MSHR misses
system.cpu.icache.demand_mshr_misses::total          738                       # number of demand (read+write) MSHR misses
system.cpu.icache.overall_mshr_misses::.cpu.inst          738                       # number of overall MSHR misses
system.cpu.icache.overall_mshr_misses::total          738                       # number of overall MSHR misses
system.cpu.icache.demand_mshr_miss_latency::.cpu.inst     53886500                       # number of demand (read+write) MSHR miss cycles
system.cpu.icache.demand_mshr_miss_latency::total     53886500                       # number of demand (read+write) MSHR miss cycles
system.cpu.icache.overall_mshr_miss_latency::.cpu.inst     53886500                       # number of overall MSHR miss cycles
system.cpu.icache.overall_mshr_miss_latency::total     53886500                       # number of overall MSHR miss cycles
system.cpu.icache.demand_mshr_miss_rate::.cpu.inst     0.000072                       # mshr miss rate for demand accesses
system.cpu.icache.demand_mshr_miss_rate::total     0.000072                       # mshr miss rate for demand accesses
system.cpu.icache.overall_mshr_miss_rate::.cpu.inst     0.000072                       # mshr miss rate for overall accesses
system.cpu.icache.overall_mshr_miss_rate::total     0.000072                       # mshr miss rate for overall accesses
system.cpu.icache.demand_avg_mshr_miss_latency::.cpu.inst 73016.937669                       # average overall mshr miss latency
system.cpu.icache.demand_avg_mshr_miss_latency::total 73016.937669                       # average overall mshr miss latency
system.cpu.icache.overall_avg_mshr_miss_latency::.cpu.inst 73016.937669                       # average overall mshr miss latency
system.cpu.icache.overall_avg_mshr_miss_latency::total 73016.937669                       # average overall mshr miss latency
system.cpu.icache.replacements                    233                       # number of replacements
system.cpu.icache.ReadReq_hits::.cpu.inst     10278673                       # number of ReadReq hits
system.cpu.icache.ReadReq_hits::total        10278673                       # number of ReadReq hits
system.cpu.icache.ReadReq_misses::.cpu.inst          738                       # number of ReadReq misses
system.cpu.icache.ReadReq_misses::total           738                       # number of ReadReq misses
system.cpu.icache.ReadReq_miss_latency::.cpu.inst     54624500                       # number of ReadReq miss cycles
system.cpu.icache.ReadReq_miss_latency::total     54624500                       # number of ReadReq miss cycles
system.cpu.icache.ReadReq_accesses::.cpu.inst     10279411                       # number of ReadReq accesses(hits+misses)
system.cpu.icache.ReadReq_accesses::total     10279411                       # number of ReadReq accesses(hits+misses)
system.cpu.icache.ReadReq_miss_rate::.cpu.inst     0.000072                       # miss rate for ReadReq accesses
system.cpu.icache.ReadReq_miss_rate::total     0.000072                       # miss rate for ReadReq accesses
system.cpu.icache.ReadReq_avg_miss_latency::.cpu.inst 74016.937669                       # average ReadReq miss latency
system.cpu.icache.ReadReq_avg_miss_latency::total 74016.937669                       # average ReadReq miss latency
system.cpu.icache.ReadReq_mshr_misses::.cpu.inst          738                       # number of ReadReq MSHR misses
system.cpu.icache.ReadReq_mshr_misses::total          738                       # number of ReadReq MSHR misses
system.cpu.icache.ReadReq_mshr_miss_latency::.cpu.inst     53886500                       # number of ReadReq MSHR miss cycles
system.cpu.icache.ReadReq_mshr_miss_latency::total     53886500                       # number of ReadReq MSHR miss cycles
system.cpu.icache.ReadReq_mshr_miss_rate::.cpu.inst     0.000072                       # mshr miss rate for ReadReq accesses
system.cpu.icache.ReadReq_mshr_miss_rate::total     0.000072                       # mshr miss rate for ReadReq accesses
system.cpu.icache.ReadReq_avg_mshr_miss_latency::.cpu.inst 73016.937669                       # average ReadReq mshr miss latency
system.cpu.icache.ReadReq_avg_mshr_miss_latency::total 73016.937669                       # average ReadReq mshr miss latency
system.cpu.icache.power_state.pwrStateResidencyTicks::UNDEFINED  90591069500                       # Cumulative time (in ticks) in various power states
system.cpu.icache.tags.tagsinuse           409.746690                       # Cycle average of tags in use
system.cpu.icache.tags.total_refs            10279411                       # Total number of references to valid blocks.
system.cpu.icache.tags.sampled_refs               738                       # Sample count of references to valid blocks.
system.cpu.icache.tags.avg_refs          13928.741192                       # Average number of references to valid blocks.
system.cpu.icache.tags.warmup_cycle             87500                       # Cycle when the warmup percentage was hit.
system.cpu.icache.tags.occ_blocks::.cpu.inst   409.746690                       # Average occupied blocks per requestor
system.cpu.icache.tags.occ_percent::.cpu.inst     0.400143                       # Average percentage of cache occupancy
system.cpu.icache.tags.occ_percent::total     0.400143                       # Average percentage of cache occupancy
system.cpu.icache.tags.occ_task_id_blocks::1024          505                       # Occupied blocks per task id
system.cpu.icache.tags.age_task_id_blocks_1024::3          107                       # Occupied blocks per task id
system.cpu.icache.tags.age_task_id_blocks_1024::4          398                       # Occupied blocks per task id
system.cpu.icache.tags.occ_task_id_percent::1024     0.493164                       # Percentage of cache occupancy per task id
system.cpu.icache.tags.tag_accesses          10280149                       # Number of tag accesses
system.cpu.icache.tags.data_accesses         10280149                       # Number of data accesses
system.cpu.icache.tags.power_state.pwrStateResidencyTicks::UNDEFINED  90591069500                       # Cumulative time (in ticks) in various power states
system.cpu.itb.instHits                             0                       # ITB inst hits
system.cpu.itb.instMisses                           0                       # ITB inst misses
system.cpu.itb.readHits                             0                       # DTB read hits
system.cpu.itb.readMisses                           0                       # DTB read misses
system.cpu.itb.writeHits                            0                       # DTB write hits
system.cpu.itb.writeMisses                          0                       # DTB write misses
system.cpu.itb.inserts                              0                       # Number of times an entry is inserted into the TLB
system.cpu.itb.flushTlb                             0                       # Number of times complete TLB was flushed
system.cpu.itb.flushTlbMva                          0                       # Number of times TLB was flushed by MVA
system.cpu.itb.flushTlbMvaAsid                      0                       # Number of times TLB was flushed by MVA & ASID
system.cpu.itb.flushTlbAsid                         0                       # Number of times TLB was flushed by ASID
system.cpu.itb.flushedEntries                       0                       # Number of entries that have been flushed from TLB
system.cpu.itb.alignFaults                          0                       # Number of TLB faults due to alignment restrictions
system.cpu.itb.prefetchFaults                       0                       # Number of TLB faults due to prefetch
system.cpu.itb.domainFaults                         0                       # Number of TLB faults due to domain restrictions
system.cpu.itb.permsFaults                          0                       # Number of TLB faults due to permissions restrictions
system.cpu.itb.readAccesses                         0                       # DTB read accesses
system.cpu.itb.writeAccesses                        0                       # DTB write accesses
system.cpu.itb.instAccesses                         0                       # ITB inst accesses
system.cpu.itb.hits                                 0                       # Total TLB (inst and data) hits
system.cpu.itb.misses                               0                       # Total TLB (inst and data) misses
system.cpu.itb.accesses                             0                       # Total TLB (inst and data) accesses
system.cpu.itb.stage2_mmu.stage2_tlb.instHits            0                       # ITB inst hits
system.cpu.itb.stage2_mmu.stage2_tlb.instMisses            0                       # ITB inst misses
system.cpu.itb.stage2_mmu.stage2_tlb.readHits            0                       # DTB read hits
system.cpu.itb.stage2_mmu.stage2_tlb.readMisses            0                       # DTB read misses
system.cpu.itb.stage2_mmu.stage2_tlb.writeHits            0                       # DTB write hits
system.cpu.itb.stage2_mmu.stage2_tlb.writeMisses            0                       # DTB write misses
system.cpu.itb.stage2_mmu.stage2_tlb.inserts            0                       # Number of times an entry is inserted into the TLB
system.cpu.itb.stage2_mmu.stage2_tlb.flushTlb            0                       # Number of times complete TLB was flushed
system.cpu.itb.stage2_mmu.stage2_tlb.flushTlbMva            0                       # Number of times TLB was flushed by MVA
system.cpu.itb.stage2_mmu.stage2_tlb.flushTlbMvaAsid            0                       # Number of times TLB was flushed by MVA & ASID
system.cpu.itb.stage2_mmu.stage2_tlb.flushTlbAsid            0                       # Number of times TLB was flushed by ASID
system.cpu.itb.stage2_mmu.stage2_tlb.flushedEntries            0                       # Number of entries that have been flushed from TLB
system.cpu.itb.stage2_mmu.stage2_tlb.alignFaults            0                       # Number of TLB faults due to alignment restrictions
system.cpu.itb.stage2_mmu.stage2_tlb.prefetchFaults            0                       # Number of TLB faults due to prefetch
system.cpu.itb.stage2_mmu.stage2_tlb.domainFaults            0                       # Number of TLB faults due to domain restrictions
system.cpu.itb.stage2_mmu.stage2_tlb.permsFaults            0                       # Number of TLB faults due to permissions restrictions
system.cpu.itb.stage2_mmu.stage2_tlb.readAccesses            0                       # DTB read accesses
system.cpu.itb.stage2_mmu.stage2_tlb.writeAccesses            0                       # DTB write accesses
system.cpu.itb.stage2_mmu.stage2_tlb.instAccesses            0                       # ITB inst accesses
system.cpu.itb.stage2_mmu.stage2_tlb.hits            0                       # Total TLB (inst and data) hits
system.cpu.itb.stage2_mmu.stage2_tlb.misses            0                       # Total TLB (inst and data) misses
system.cpu.itb.stage2_mmu.stage2_tlb.accesses            0                       # Total TLB (inst and data) accesses
system.cpu.itb.stage2_mmu.stage2_tlb.walker.walks            0                       # Table walker walks requested
system.cpu.itb.stage2_mmu.stage2_tlb.walker.requestOrigin_Requested::Data            0                       # Table walker requests started/completed, data/inst
system.cpu.itb.stage2_mmu.stage2_tlb.walker.requestOrigin_Requested::Inst            0                       # Table walker requests started/completed, data/inst
system.cpu.itb.stage2_mmu.stage2_tlb.walker.requestOrigin_Requested::total            0                       # Table walker requests started/completed, data/inst
system.cpu.itb.stage2_mmu.stage2_tlb.walker.requestOrigin_Completed::Data            0                       # Table walker requests started/completed, data/inst
system.cpu.itb.stage2_mmu.stage2_tlb.walker.requestOrigin_Completed::Inst            0                       # Table walker requests started/completed, data/inst
system.cpu.itb.stage2_mmu.stage2_tlb.walker.requestOrigin_Completed::total            0                       # Table walker requests started/completed, data/inst
system.cpu.itb.stage2_mmu.stage2_tlb.walker.requestOrigin::total            0                       # Table walker requests started/completed, data/inst
system.cpu.itb.stage2_mmu.stage2_tlb.walker.power_state.pwrStateResidencyTicks::UNDEFINED  90591069500                       # Cumulative time (in ticks) in various power states
system.cpu.itb.walker.walks                         0                       # Table walker walks requested
system.cpu.itb.walker.requestOrigin_Requested::Data            0                       # Table walker requests started/completed, data/inst
system.cpu.itb.walker.requestOrigin_Requested::Inst            0                       # Table walker requests started/completed, data/inst
system.cpu.itb.walker.requestOrigin_Requested::total            0                       # Table walker requests started/completed, data/inst
system.cpu.itb.walker.requestOrigin_Completed::Data            0                       # Table walker requests started/completed, data/inst
system.cpu.itb.walker.requestOrigin_Completed::Inst            0                       # Table walker requests started/completed, data/inst
system.cpu.itb.walker.requestOrigin_Completed::total            0                       # Table walker requests started/completed, data/inst
system.cpu.itb.walker.requestOrigin::total            0                       # Table walker requests started/completed, data/inst
system.cpu.itb.walker.power_state.pwrStateResidencyTicks::UNDEFINED  90591069500                       # Cumulative time (in ticks) in various power states
system.cpu.power_state.pwrStateResidencyTicks::ON  90591069500                       # Cumulative time (in ticks) in various power states
system.cpu.thread0.numInsts                 100000001                       # Number of Instructions committed
system.cpu.thread0.numOps                   100196356                       # Number of Ops committed
system.cpu.thread0.numMemRefs                       0                       # Number of Memory References
system.cpu_clk_domain.clock                       500                       # Clock period in ticks
system.cpu_voltage_domain.voltage                   1                       # Voltage in Volts
system.l2.demand_hits::.cpu.inst                   68                       # number of demand (read+write) hits
system.l2.demand_hits::.cpu.data               711855                       # number of demand (read+write) hits
system.l2.demand_hits::total                   711923                       # number of demand (read+write) hits
system.l2.overall_hits::.cpu.inst                  68                       # number of overall hits
system.l2.overall_hits::.cpu.data              711855                       # number of overall hits
system.l2.overall_hits::total                  711923                       # number of overall hits
system.l2.demand_misses::.cpu.inst                670                       # number of demand (read+write) misses
system.l2.demand_misses::.cpu.data             275518                       # number of demand (read+write) misses
system.l2.demand_misses::total                 276188                       # number of demand (read+write) misses
system.l2.overall_misses::.cpu.inst               670                       # number of overall misses
system.l2.overall_misses::.cpu.data            275518                       # number of overall misses
system.l2.overall_misses::total                276188                       # number of overall misses
system.l2.demand_miss_latency::.cpu.inst     52044000                       # number of demand (read+write) miss cycles
system.l2.demand_miss_latency::.cpu.data  23942019000                       # number of demand (read+write) miss cycles
system.l2.demand_miss_latency::total      23994063000                       # number of demand (read+write) miss cycles
system.l2.overall_miss_latency::.cpu.inst     52044000                       # number of overall miss cycles
system.l2.overall_miss_latency::.cpu.data  23942019000                       # number of overall miss cycles
system.l2.overall_miss_latency::total     23994063000                       # number of overall miss cycles
system.l2.demand_accesses::.cpu.inst              738                       # number of demand (read+write) accesses
system.l2.demand_accesses::.cpu.data           987373                       # number of demand (read+write) accesses
system.l2.demand_accesses::total               988111                       # number of demand (read+write) accesses
system.l2.overall_accesses::.cpu.inst             738                       # number of overall (read+write) accesses
system.l2.overall_accesses::.cpu.data          987373                       # number of overall (read+write) accesses
system.l2.overall_accesses::total              988111                       # number of overall (read+write) accesses
system.l2.demand_miss_rate::.cpu.inst        0.907859                       # miss rate for demand accesses
system.l2.demand_miss_rate::.cpu.data        0.279041                       # miss rate for demand accesses
system.l2.demand_miss_rate::total            0.279511                       # miss rate for demand accesses
system.l2.overall_miss_rate::.cpu.inst       0.907859                       # miss rate for overall accesses
system.l2.overall_miss_rate::.cpu.data       0.279041                       # miss rate for overall accesses
system.l2.overall_miss_rate::total           0.279511                       # miss rate for overall accesses
system.l2.demand_avg_miss_latency::.cpu.inst 77677.611940                       # average overall miss latency
system.l2.demand_avg_miss_latency::.cpu.data 86898.202658                       # average overall miss latency
system.l2.demand_avg_miss_latency::total 86875.834576                       # average overall miss latency
system.l2.overall_avg_miss_latency::.cpu.inst 77677.611940                       # average overall miss latency
system.l2.overall_avg_miss_latency::.cpu.data 86898.202658                       # average overall miss latency
system.l2.overall_avg_miss_latency::total 86875.834576                       # average overall miss latency
system.l2.blocked_cycles::no_mshrs                  0                       # number of cycles access was blocked
system.l2.blocked_cycles::no_targets                0                       # number of cycles access was blocked
system.l2.blocked::no_mshrs                         0                       # number of cycles access was blocked
system.l2.blocked::no_targets                       0                       # number of cycles access was blocked
system.l2.avg_blocked_cycles::no_mshrs            nan                       # average number of cycles each access was blocked
system.l2.avg_blocked_cycles::no_targets          nan                       # average number of cycles each access was blocked
system.l2.writebacks::.writebacks              189463                       # number of writebacks
system.l2.writebacks::total                    189463                       # number of writebacks
system.l2.demand_mshr_hits::.cpu.data               5                       # number of demand (read+write) MSHR hits
system.l2.demand_mshr_hits::total                   5                       # number of demand (read+write) MSHR hits
system.l2.overall_mshr_hits::.cpu.data              5                       # number of overall MSHR hits
system.l2.overall_mshr_hits::total                  5                       # number of overall MSHR hits
system.l2.demand_mshr_misses::.cpu.inst           670                       # number of demand (read+write) MSHR misses
system.l2.demand_mshr_misses::.cpu.data        275513                       # number of demand (read+write) MSHR misses
system.l2.demand_mshr_misses::total            276183                       # number of demand (read+write) MSHR misses
system.l2.overall_mshr_misses::.cpu.inst          670                       # number of overall MSHR misses
system.l2.overall_mshr_misses::.cpu.data       275513                       # number of overall MSHR misses
system.l2.overall_mshr_misses::total           276183                       # number of overall MSHR misses
system.l2.demand_mshr_miss_latency::.cpu.inst     45344000                       # number of demand (read+write) MSHR miss cycles
system.l2.demand_mshr_miss_latency::.cpu.data  21186557500                       # number of demand (read+write) MSHR miss cycles
system.l2.demand_mshr_miss_latency::total  21231901500                       # number of demand (read+write) MSHR miss cycles
system.l2.overall_mshr_miss_latency::.cpu.inst     45344000                       # number of overall MSHR miss cycles
system.l2.overall_mshr_miss_latency::.cpu.data  21186557500                       # number of overall MSHR miss cycles
system.l2.overall_mshr_miss_latency::total  21231901500                       # number of overall MSHR miss cycles
system.l2.demand_mshr_miss_rate::.cpu.inst     0.907859                       # mshr miss rate for demand accesses
system.l2.demand_mshr_miss_rate::.cpu.data     0.279036                       # mshr miss rate for demand accesses
system.l2.demand_mshr_miss_rate::total       0.279506                       # mshr miss rate for demand accesses
system.l2.overall_mshr_miss_rate::.cpu.inst     0.907859                       # mshr miss rate for overall accesses
system.l2.overall_mshr_miss_rate::.cpu.data     0.279036                       # mshr miss rate for overall accesses
system.l2.overall_mshr_miss_rate::total      0.279506                       # mshr miss rate for overall accesses
system.l2.demand_avg_mshr_miss_latency::.cpu.inst 67677.611940                       # average overall mshr miss latency
system.l2.demand_avg_mshr_miss_latency::.cpu.data 76898.576474                       # average overall mshr miss latency
system.l2.demand_avg_mshr_miss_latency::total 76876.207080                       # average overall mshr miss latency
system.l2.overall_avg_mshr_miss_latency::.cpu.inst 67677.611940                       # average overall mshr miss latency
system.l2.overall_avg_mshr_miss_latency::.cpu.data 76898.576474                       # average overall mshr miss latency
system.l2.overall_avg_mshr_miss_latency::total 76876.207080                       # average overall mshr miss latency
system.l2.replacements                         268075                       # number of replacements
system.l2.WritebackDirty_hits::.writebacks       876450                       # number of WritebackDirty hits
system.l2.WritebackDirty_hits::total           876450                       # number of WritebackDirty hits
system.l2.WritebackDirty_accesses::.writebacks       876450                       # number of WritebackDirty accesses(hits+misses)
system.l2.WritebackDirty_accesses::total       876450                       # number of WritebackDirty accesses(hits+misses)
system.l2.WritebackClean_hits::.writebacks          223                       # number of WritebackClean hits
system.l2.WritebackClean_hits::total              223                       # number of WritebackClean hits
system.l2.WritebackClean_accesses::.writebacks          223                       # number of WritebackClean accesses(hits+misses)
system.l2.WritebackClean_accesses::total          223                       # number of WritebackClean accesses(hits+misses)
system.l2.ReadExReq_hits::.cpu.data            217182                       # number of ReadExReq hits
system.l2.ReadExReq_hits::total                217182                       # number of ReadExReq hits
system.l2.ReadExReq_misses::.cpu.data          166952                       # number of ReadExReq misses
system.l2.ReadExReq_misses::total              166952                       # number of ReadExReq misses
system.l2.ReadExReq_miss_latency::.cpu.data  14951562000                       # number of ReadExReq miss cycles
system.l2.ReadExReq_miss_latency::total   14951562000                       # number of ReadExReq miss cycles
system.l2.ReadExReq_accesses::.cpu.data        384134                       # number of ReadExReq accesses(hits+misses)
system.l2.ReadExReq_accesses::total            384134                       # number of ReadExReq accesses(hits+misses)
system.l2.ReadExReq_miss_rate::.cpu.data     0.434619                       # miss rate for ReadExReq accesses
system.l2.ReadExReq_miss_rate::total         0.434619                       # miss rate for ReadExReq accesses
system.l2.ReadExReq_avg_miss_latency::.cpu.data 89556.052039                       # average ReadExReq miss latency
system.l2.ReadExReq_avg_miss_latency::total 89556.052039                       # average ReadExReq miss latency
system.l2.ReadExReq_mshr_misses::.cpu.data       166952                       # number of ReadExReq MSHR misses
system.l2.ReadExReq_mshr_misses::total         166952                       # number of ReadExReq MSHR misses
system.l2.ReadExReq_mshr_miss_latency::.cpu.data  13282042000                       # number of ReadExReq MSHR miss cycles
system.l2.ReadExReq_mshr_miss_latency::total  13282042000                       # number of ReadExReq MSHR miss cycles
system.l2.ReadExReq_mshr_miss_rate::.cpu.data     0.434619                       # mshr miss rate for ReadExReq accesses
system.l2.ReadExReq_mshr_miss_rate::total     0.434619                       # mshr miss rate for ReadExReq accesses
system.l2.ReadExReq_avg_mshr_miss_latency::.cpu.data 79556.052039                       # average ReadExReq mshr miss latency
system.l2.ReadExReq_avg_mshr_miss_latency::total 79556.052039                       # average ReadExReq mshr miss latency
system.l2.ReadCleanReq_hits::.cpu.inst             68                       # number of ReadCleanReq hits
system.l2.ReadCleanReq_hits::total                 68                       # number of ReadCleanReq hits
system.l2.ReadCleanReq_misses::.cpu.inst          670                       # number of ReadCleanReq misses
system.l2.ReadCleanReq_misses::total              670                       # number of ReadCleanReq misses
system.l2.ReadCleanReq_miss_latency::.cpu.inst     52044000                       # number of ReadCleanReq miss cycles
system.l2.ReadCleanReq_miss_latency::total     52044000                       # number of ReadCleanReq miss cycles
system.l2.ReadCleanReq_accesses::.cpu.inst          738                       # number of ReadCleanReq accesses(hits+misses)
system.l2.ReadCleanReq_accesses::total            738                       # number of ReadCleanReq accesses(hits+misses)
system.l2.ReadCleanReq_miss_rate::.cpu.inst     0.907859                       # miss rate for ReadCleanReq accesses
system.l2.ReadCleanReq_miss_rate::total      0.907859                       # miss rate for ReadCleanReq accesses
system.l2.ReadCleanReq_avg_miss_latency::.cpu.inst 77677.611940                       # average ReadCleanReq miss latency
system.l2.ReadCleanReq_avg_miss_latency::total 77677.611940                       # average ReadCleanReq miss latency
system.l2.ReadCleanReq_mshr_misses::.cpu.inst          670                       # number of ReadCleanReq MSHR misses
system.l2.ReadCleanReq_mshr_misses::total          670                       # number of ReadCleanReq MSHR misses
system.l2.ReadCleanReq_mshr_miss_latency::.cpu.inst     45344000                       # number of ReadCleanReq MSHR miss cycles
system.l2.ReadCleanReq_mshr_miss_latency::total     45344000                       # number of ReadCleanReq MSHR miss cycles
system.l2.ReadCleanReq_mshr_miss_rate::.cpu.inst     0.907859                       # mshr miss rate for ReadCleanReq accesses
system.l2.ReadCleanReq_mshr_miss_rate::total     0.907859                       # mshr miss rate for ReadCleanReq accesses
system.l2.ReadCleanReq_avg_mshr_miss_latency::.cpu.inst 67677.611940                       # average ReadCleanReq mshr miss latency
system.l2.ReadCleanReq_avg_mshr_miss_latency::total 67677.611940                       # average ReadCleanReq mshr miss latency
system.l2.ReadSharedReq_hits::.cpu.data        494673                       # number of ReadSharedReq hits
system.l2.ReadSharedReq_hits::total            494673                       # number of ReadSharedReq hits
system.l2.ReadSharedReq_misses::.cpu.data       108566                       # number of ReadSharedReq misses
system.l2.ReadSharedReq_misses::total          108566                       # number of ReadSharedReq misses
system.l2.ReadSharedReq_miss_latency::.cpu.data   8990457000                       # number of ReadSharedReq miss cycles
system.l2.ReadSharedReq_miss_latency::total   8990457000                       # number of ReadSharedReq miss cycles
system.l2.ReadSharedReq_accesses::.cpu.data       603239                       # number of ReadSharedReq accesses(hits+misses)
system.l2.ReadSharedReq_accesses::total        603239                       # number of ReadSharedReq accesses(hits+misses)
system.l2.ReadSharedReq_miss_rate::.cpu.data     0.179972                       # miss rate for ReadSharedReq accesses
system.l2.ReadSharedReq_miss_rate::total     0.179972                       # miss rate for ReadSharedReq accesses
system.l2.ReadSharedReq_avg_miss_latency::.cpu.data 82810.981339                       # average ReadSharedReq miss latency
system.l2.ReadSharedReq_avg_miss_latency::total 82810.981339                       # average ReadSharedReq miss latency
system.l2.ReadSharedReq_mshr_hits::.cpu.data            5                       # number of ReadSharedReq MSHR hits
system.l2.ReadSharedReq_mshr_hits::total            5                       # number of ReadSharedReq MSHR hits
system.l2.ReadSharedReq_mshr_misses::.cpu.data       108561                       # number of ReadSharedReq MSHR misses
system.l2.ReadSharedReq_mshr_misses::total       108561                       # number of ReadSharedReq MSHR misses
system.l2.ReadSharedReq_mshr_miss_latency::.cpu.data   7904515500                       # number of ReadSharedReq MSHR miss cycles
system.l2.ReadSharedReq_mshr_miss_latency::total   7904515500                       # number of ReadSharedReq MSHR miss cycles
system.l2.ReadSharedReq_mshr_miss_rate::.cpu.data     0.179963                       # mshr miss rate for ReadSharedReq accesses
system.l2.ReadSharedReq_mshr_miss_rate::total     0.179963                       # mshr miss rate for ReadSharedReq accesses
system.l2.ReadSharedReq_avg_mshr_miss_latency::.cpu.data 72811.741786                       # average ReadSharedReq mshr miss latency
system.l2.ReadSharedReq_avg_mshr_miss_latency::total 72811.741786                       # average ReadSharedReq mshr miss latency
system.l2.power_state.pwrStateResidencyTicks::UNDEFINED  90591069500                       # Cumulative time (in ticks) in various power states
system.l2.tags.tagsinuse                  8045.660254                       # Cycle average of tags in use
system.l2.tags.total_refs                     1973905                       # Total number of references to valid blocks.
system.l2.tags.sampled_refs                    276267                       # Sample count of references to valid blocks.
system.l2.tags.avg_refs                      7.144918                       # Average number of references to valid blocks.
system.l2.tags.warmup_cycle                     77000                       # Cycle when the warmup percentage was hit.
system.l2.tags.occ_blocks::.writebacks       7.596492                       # Average occupied blocks per requestor
system.l2.tags.occ_blocks::.cpu.inst        28.693874                       # Average occupied blocks per requestor
system.l2.tags.occ_blocks::.cpu.data      8009.369888                       # Average occupied blocks per requestor
system.l2.tags.occ_percent::.writebacks      0.000927                       # Average percentage of cache occupancy
system.l2.tags.occ_percent::.cpu.inst        0.003503                       # Average percentage of cache occupancy
system.l2.tags.occ_percent::.cpu.data        0.977706                       # Average percentage of cache occupancy
system.l2.tags.occ_percent::total            0.982136                       # Average percentage of cache occupancy
system.l2.tags.occ_task_id_blocks::1024          8192                       # Occupied blocks per task id
system.l2.tags.age_task_id_blocks_1024::0           12                       # Occupied blocks per task id
system.l2.tags.age_task_id_blocks_1024::1          323                       # Occupied blocks per task id
system.l2.tags.age_task_id_blocks_1024::2         4105                       # Occupied blocks per task id
system.l2.tags.age_task_id_blocks_1024::3         3748                       # Occupied blocks per task id
system.l2.tags.age_task_id_blocks_1024::4            4                       # Occupied blocks per task id
system.l2.tags.occ_task_id_percent::1024            1                       # Percentage of cache occupancy per task id
system.l2.tags.tag_accesses                  31858827                       # Number of tag accesses
system.l2.tags.data_accesses                 31858827                       # Number of data accesses
system.l2.tags.power_state.pwrStateResidencyTicks::UNDEFINED  90591069500                       # Cumulative time (in ticks) in various power states
system.mem_ctrls.avgPriority_.writebacks::samples    189463.00                       # Average QoS priority value for accepted requests
system.mem_ctrls.avgPriority_.cpu.inst::samples       670.00                       # Average QoS priority value for accepted requests
system.mem_ctrls.avgPriority_.cpu.data::samples    274749.00                       # Average QoS priority value for accepted requests
system.mem_ctrls.priorityMinLatency      0.000000018750                       # per QoS priority minimum request to response latency (s)
system.mem_ctrls.priorityMaxLatency      0.016707514500                       # per QoS priority maximum request to response latency (s)
system.mem_ctrls.numReadWriteTurnArounds        11251                       # Number of turnarounds from READ to WRITE
system.mem_ctrls.numWriteReadTurnArounds        11251                       # Number of turnarounds from WRITE to READ
system.mem_ctrls.numStayReadState              749241                       # Number of times bus staying in READ state
system.mem_ctrls.numStayWriteState             178435                       # Number of times bus staying in WRITE state
system.mem_ctrls.readReqs                      276183                       # Number of read requests accepted
system.mem_ctrls.writeReqs                     189463                       # Number of write requests accepted
system.mem_ctrls.readBursts                    276183                       # Number of controller read bursts, including those serviced by the write queue
system.mem_ctrls.writeBursts                   189463                       # Number of controller write bursts, including those merged in the write queue
system.mem_ctrls.servicedByWrQ                    764                       # Number of controller read bursts serviced by the write queue
system.mem_ctrls.mergedWrBursts                     0                       # Number of controller write bursts merged with an existing one
system.mem_ctrls.neitherReadNorWriteReqs            0                       # Number of requests that are neither read nor write
system.mem_ctrls.avgRdQLen                       1.09                       # Average read queue length when enqueuing
system.mem_ctrls.avgWrQLen                      24.72                       # Average write queue length when enqueuing
system.mem_ctrls.numRdRetry                         0                       # Number of times read queue was full causing retry
system.mem_ctrls.numWrRetry                         0                       # Number of times write queue was full causing retry
system.mem_ctrls.readPktSize::0                     0                       # Read request sizes (log2)
system.mem_ctrls.readPktSize::1                     0                       # Read request sizes (log2)
system.mem_ctrls.readPktSize::2                     0                       # Read request sizes (log2)
system.mem_ctrls.readPktSize::3                     0                       # Read request sizes (log2)
system.mem_ctrls.readPktSize::4                     0                       # Read request sizes (log2)
system.mem_ctrls.readPktSize::5                     0                       # Read request sizes (log2)
system.mem_ctrls.readPktSize::6                276183                       # Read request sizes (log2)
system.mem_ctrls.writePktSize::0                    0                       # Write request sizes (log2)
system.mem_ctrls.writePktSize::1                    0                       # Write request sizes (log2)
system.mem_ctrls.writePktSize::2                    0                       # Write request sizes (log2)
system.mem_ctrls.writePktSize::3                    0                       # Write request sizes (log2)
system.mem_ctrls.writePktSize::4                    0                       # Write request sizes (log2)
system.mem_ctrls.writePktSize::5                    0                       # Write request sizes (log2)
system.mem_ctrls.writePktSize::6               189463                       # Write request sizes (log2)
system.mem_ctrls.rdQLenPdf::0                  206209                       # What read queue length does an incoming req see
system.mem_ctrls.rdQLenPdf::1                   66408                       # What read queue length does an incoming req see
system.mem_ctrls.rdQLenPdf::2                    2423                       # What read queue length does an incoming req see
system.mem_ctrls.rdQLenPdf::3                     378                       # What read queue length does an incoming req see
system.mem_ctrls.rdQLenPdf::4                       1                       # What read queue length does an incoming req see
system.mem_ctrls.rdQLenPdf::5                       0                       # What read queue length does an incoming req see
system.mem_ctrls.rdQLenPdf::6                       0                       # What read queue length does an incoming req see
system.mem_ctrls.rdQLenPdf::7                       0                       # What read queue length does an incoming req see
system.mem_ctrls.rdQLenPdf::8                       0                       # What read queue length does an incoming req see
system.mem_ctrls.rdQLenPdf::9                       0                       # What read queue length does an incoming req see
system.mem_ctrls.rdQLenPdf::10                      0                       # What read queue length does an incoming req see
system.mem_ctrls.rdQLenPdf::11                      0                       # What read queue length does an incoming req see
[...]
system.mem_ctrls.dram.bw_write::.writebacks    133850191                       # Write bandwidth from this memory (bytes/s)
system.mem_ctrls.dram.bw_write::total       133850191                       # Write bandwidth from this memory (bytes/s)
system.mem_ctrls.dram.bw_total::.writebacks    133850191                       # Total bandwidth to/from this memory (bytes/s)
system.mem_ctrls.dram.bw_total::.cpu.inst       473336                       # Total bandwidth to/from this memory (bytes/s)
system.mem_ctrls.dram.bw_total::.cpu.data    194642056                       # Total bandwidth to/from this memory (bytes/s)
system.mem_ctrls.dram.bw_total::total       328965583                       # Total bandwidth to/from this memory (bytes/s)
system.mem_ctrls.dram.readBursts               275419                       # Number of DRAM read bursts
system.mem_ctrls.dram.writeBursts              189443                       # Number of DRAM write bursts
system.mem_ctrls.dram.perBankRdBursts::0        17117                       # Per bank write bursts
system.mem_ctrls.dram.perBankRdBursts::1        16910                       # Per bank write bursts
system.mem_ctrls.dram.perBankRdBursts::2        16847                       # Per bank write bursts
system.mem_ctrls.dram.perBankRdBursts::3        17033                       # Per bank write bursts
system.mem_ctrls.dram.perBankRdBursts::4        17484                       # Per bank write bursts
system.mem_ctrls.dram.perBankRdBursts::5        16848                       # Per bank write bursts
system.mem_ctrls.dram.perBankRdBursts::6        17184                       # Per bank write bursts
system.mem_ctrls.dram.perBankRdBursts::7        17911                       # Per bank write bursts
system.mem_ctrls.dram.perBankRdBursts::8        17355                       # Per bank write bursts
system.mem_ctrls.dram.perBankRdBursts::9        16410                       # Per bank write bursts
system.mem_ctrls.dram.perBankRdBursts::10        16558                       # Per bank write bursts
system.mem_ctrls.dram.perBankRdBursts::11        17552                       # Per bank write bursts
system.mem_ctrls.dram.perBankRdBursts::12        17216                       # Per bank write bursts
system.mem_ctrls.dram.perBankRdBursts::13        17817                       # Per bank write bursts
system.mem_ctrls.dram.perBankRdBursts::14        17356                       # Per bank write bursts
system.mem_ctrls.dram.perBankRdBursts::15        17821                       # Per bank write bursts
system.mem_ctrls.dram.perBankWrBursts::0        11625                       # Per bank write bursts
system.mem_ctrls.dram.perBankWrBursts::1        11473                       # Per bank write bursts
system.mem_ctrls.dram.perBankWrBursts::2        11514                       # Per bank write bursts
system.mem_ctrls.dram.perBankWrBursts::3        11733                       # Per bank write bursts
system.mem_ctrls.dram.perBankWrBursts::4        12102                       # Per bank write bursts
system.mem_ctrls.dram.perBankWrBursts::5        11684                       # Per bank write bursts
system.mem_ctrls.dram.perBankWrBursts::6        11896                       # Per bank write bursts
system.mem_ctrls.dram.perBankWrBursts::7        12584                       # Per bank write bursts
system.mem_ctrls.dram.perBankWrBursts::8        12086                       # Per bank write bursts
system.mem_ctrls.dram.perBankWrBursts::9        11291                       # Per bank write bursts
system.mem_ctrls.dram.perBankWrBursts::10        11277                       # Per bank write bursts
system.mem_ctrls.dram.perBankWrBursts::11        12149                       # Per bank write bursts
system.mem_ctrls.dram.perBankWrBursts::12        11642                       # Per bank write bursts
system.mem_ctrls.dram.perBankWrBursts::13        12234                       # Per bank write bursts
system.mem_ctrls.dram.perBankWrBursts::14        11818                       # Per bank write bursts
system.mem_ctrls.dram.perBankWrBursts::15        12335                       # Per bank write bursts
system.mem_ctrls.dram.totQLat              4689865250                       # Total ticks spent queuing
system.mem_ctrls.dram.totBusLat            1377095000                       # Total ticks spent in databus transfers
system.mem_ctrls.dram.totMemAccLat         9853971500                       # Total ticks spent from burst creation until serviced by the DRAM
system.mem_ctrls.dram.avgQLat                17028.11                       # Average queueing delay per DRAM burst
system.mem_ctrls.dram.avgBusLat               5000.00                       # Average bus latency per DRAM burst
system.mem_ctrls.dram.avgMemAccLat           35778.11                       # Average memory access latency per DRAM burst
system.mem_ctrls.dram.readRowHits              155164                       # Number of row buffer hits during reads
system.mem_ctrls.dram.writeRowHits              97292                       # Number of row buffer hits during writes
system.mem_ctrls.dram.readRowHitRate            56.34                       # Row buffer hit rate for reads
system.mem_ctrls.dram.writeRowHitRate           51.36                       # Row buffer hit rate for writes
system.mem_ctrls.dram.bytesPerActivate::samples       212406                       # Bytes accessed per row activation
system.mem_ctrls.dram.bytesPerActivate::mean   140.067456                       # Bytes accessed per row activation
system.mem_ctrls.dram.bytesPerActivate::gmean    92.126630                       # Bytes accessed per row activation
system.mem_ctrls.dram.bytesPerActivate::stdev   200.407576                       # Bytes accessed per row activation
system.mem_ctrls.dram.bytesPerActivate::0-127       156979     73.91%     73.91% # Bytes accessed per row activation
system.mem_ctrls.dram.bytesPerActivate::128-255        30392     14.31%     88.21% # Bytes accessed per row activation
system.mem_ctrls.dram.bytesPerActivate::256-383         4228      1.99%     90.20% # Bytes accessed per row activation
system.mem_ctrls.dram.bytesPerActivate::384-511         2255      1.06%     91.27% # Bytes accessed per row activation
system.mem_ctrls.dram.bytesPerActivate::512-639        10298      4.85%     96.11% # Bytes accessed per row activation
system.mem_ctrls.dram.bytesPerActivate::640-767          563      0.27%     96.38% # Bytes accessed per row activation
system.mem_ctrls.dram.bytesPerActivate::768-895          434      0.20%     96.58% # Bytes accessed per row activation
system.mem_ctrls.dram.bytesPerActivate::896-1023          832      0.39%     96.98% # Bytes accessed per row activation
system.mem_ctrls.dram.bytesPerActivate::1024-1151         6425      3.02%    100.00% # Bytes accessed per row activation
system.mem_ctrls.dram.bytesPerActivate::total       212406                       # Bytes accessed per row activation
system.mem_ctrls.dram.bytesRead              17626816                       # Total number of bytes read from DRAM
system.mem_ctrls.dram.bytesWritten           12124352                       # Total number of bytes written to DRAM
system.mem_ctrls.dram.avgRdBW              194.575647                       # Average DRAM read bandwidth in MiBytes/s
system.mem_ctrls.dram.avgWrBW              133.836062                       # Average DRAM write bandwidth in MiBytes/s
system.mem_ctrls.dram.peakBW                 12800.00                       # Theoretical peak bandwidth in MiByte/s
system.mem_ctrls.dram.busUtil                    2.57                       # Data bus utilization in percentage
system.mem_ctrls.dram.busUtilRead                1.52                       # Data bus utilization in percentage for reads
system.mem_ctrls.dram.busUtilWrite               1.05                       # Data bus utilization in percentage for writes
system.mem_ctrls.dram.pageHitRate               54.31                       # Row buffer hit rate, read and write combined
system.mem_ctrls.dram.power_state.pwrStateResidencyTicks::UNDEFINED  90591069500                       # Cumulative time (in ticks) in various power states
system.mem_ctrls.dram.rank0.actEnergy       754862220                       # Energy for activate commands per rank (pJ)
system.mem_ctrls.dram.rank0.preEnergy       401218785                       # Energy for precharge commands per rank (pJ)
system.mem_ctrls.dram.rank0.readEnergy      980564760                       # Energy for read commands per rank (pJ)
system.mem_ctrls.dram.rank0.writeEnergy     493869420                       # Energy for write commands per rank (pJ)
system.mem_ctrls.dram.rank0.refreshEnergy 7150721760.000001                       # Energy for refresh commands per rank (pJ)
system.mem_ctrls.dram.rank0.actBackEnergy  27247812600                       # Energy for active background per rank (pJ)
system.mem_ctrls.dram.rank0.preBackEnergy  11841444480                       # Energy for precharge background per rank (pJ)
system.mem_ctrls.dram.rank0.actPowerDownEnergy            0                       # Energy for active power-down per rank (pJ)
system.mem_ctrls.dram.rank0.prePowerDownEnergy            0                       # Energy for precharge power-down per rank (pJ)
system.mem_ctrls.dram.rank0.selfRefreshEnergy            0                       # Energy for self refresh per rank (pJ)
system.mem_ctrls.dram.rank0.totalEnergy   48870494025                       # Total energy per rank (pJ)
system.mem_ctrls.dram.rank0.averagePower   539.462601                       # Core power per rank (mW)
system.mem_ctrls.dram.rank0.totalIdleTime            0                       # Total Idle time Per DRAM Rank
system.mem_ctrls.dram.rank0.pwrStateTime::IDLE  30513094750                       # Time in different power states
system.mem_ctrls.dram.rank0.pwrStateTime::REF   3024840000                       # Time in different power states
system.mem_ctrls.dram.rank0.pwrStateTime::SREF            0                       # Time in different power states
system.mem_ctrls.dram.rank0.pwrStateTime::PRE_PDN            0                       # Time in different power states
system.mem_ctrls.dram.rank0.pwrStateTime::ACT  57053134750                       # Time in different power states
system.mem_ctrls.dram.rank0.pwrStateTime::ACT_PDN            0                       # Time in different power states
system.mem_ctrls.dram.rank1.actEnergy       761716620                       # Energy for activate commands per rank (pJ)
system.mem_ctrls.dram.rank1.preEnergy       404861985                       # Energy for precharge commands per rank (pJ)
system.mem_ctrls.dram.rank1.readEnergy      985926900                       # Energy for read commands per rank (pJ)
system.mem_ctrls.dram.rank1.writeEnergy     495023040                       # Energy for write commands per rank (pJ)
system.mem_ctrls.dram.rank1.refreshEnergy 7150721760.000001                       # Energy for refresh commands per rank (pJ)
system.mem_ctrls.dram.rank1.actBackEnergy  26989121520                       # Energy for active background per rank (pJ)
system.mem_ctrls.dram.rank1.preBackEnergy  12059289600                       # Energy for precharge background per rank (pJ)
system.mem_ctrls.dram.rank1.actPowerDownEnergy            0                       # Energy for active power-down per rank (pJ)
system.mem_ctrls.dram.rank1.prePowerDownEnergy            0                       # Energy for precharge power-down per rank (pJ)
system.mem_ctrls.dram.rank1.selfRefreshEnergy            0                       # Energy for self refresh per rank (pJ)
system.mem_ctrls.dram.rank1.totalEnergy   48846661425                       # Total energy per rank (pJ)
system.mem_ctrls.dram.rank1.averagePower   539.199523                       # Core power per rank (mW)
system.mem_ctrls.dram.rank1.totalIdleTime            0                       # Total Idle time Per DRAM Rank
system.mem_ctrls.dram.rank1.pwrStateTime::IDLE  31079558250                       # Time in different power states
system.mem_ctrls.dram.rank1.pwrStateTime::REF   3024840000                       # Time in different power states
system.mem_ctrls.dram.rank1.pwrStateTime::SREF            0                       # Time in different power states
system.mem_ctrls.dram.rank1.pwrStateTime::PRE_PDN            0                       # Time in different power states
system.mem_ctrls.dram.rank1.pwrStateTime::ACT  56486671250                       # Time in different power states
system.mem_ctrls.dram.rank1.pwrStateTime::ACT_PDN            0                       # Time in different power states
system.mem_ctrls.power_state.pwrStateResidencyTicks::UNDEFINED  90591069500                       # Cumulative time (in ticks) in various power states
system.membus.trans_dist::ReadResp             109231                       # Transaction distribution
system.membus.trans_dist::WritebackDirty       189463                       # Transaction distribution
system.membus.trans_dist::CleanEvict            78017                       # Transaction distribution
system.membus.trans_dist::ReadExReq            166952                       # Transaction distribution
system.membus.trans_dist::ReadExResp           166952                       # Transaction distribution
system.membus.trans_dist::ReadSharedReq        109231                       # Transaction distribution
system.membus.pkt_count_system.l2.mem_side_port::system.mem_ctrls.port       819846                       # Packet count per connected requestor and responder (bytes)
system.membus.pkt_count::total                 819846                       # Packet count per connected requestor and responder (bytes)
system.membus.pkt_size_system.l2.mem_side_port::system.mem_ctrls.port     29801344                       # Cumulative packet size per connected requestor and responder (bytes)
system.membus.pkt_size::total                29801344                       # Cumulative packet size per connected requestor and responder (bytes)
system.membus.snoops                                0                       # Total snoops (count)
system.membus.snoopTraffic                          0                       # Total snoop traffic (bytes)
system.membus.snoop_fanout::samples            276183                       # Request fanout histogram
system.membus.snoop_fanout::mean                    0                       # Request fanout histogram
system.membus.snoop_fanout::stdev                   0                       # Request fanout histogram
system.membus.snoop_fanout::underflows              0      0.00%      0.00% # Request fanout histogram
system.membus.snoop_fanout::0                  276183    100.00%    100.00% # Request fanout histogram
system.membus.snoop_fanout::1                       0      0.00%    100.00% # Request fanout histogram
system.membus.snoop_fanout::overflows               0      0.00%    100.00% # Request fanout histogram
system.membus.snoop_fanout::min_value               0                       # Request fanout histogram
system.membus.snoop_fanout::max_value               0                       # Request fanout histogram
system.membus.snoop_fanout::total              276183                       # Request fanout histogram
system.membus.power_state.pwrStateResidencyTicks::UNDEFINED  90591069500                       # Cumulative time (in ticks) in various power states
system.membus.reqLayer0.occupancy          1353579500                       # Layer occupancy (ticks)
system.membus.reqLayer0.utilization               1.5                       # Layer utilization (%)
system.membus.respLayer1.occupancy         1498091000                       # Layer occupancy (ticks)
system.membus.respLayer1.utilization              1.7                       # Layer utilization (%)
system.tol2bus.trans_dist::ReadResp            603977                       # Transaction distribution
system.tol2bus.trans_dist::WritebackDirty      1065913                       # Transaction distribution
system.tol2bus.trans_dist::WritebackClean          233                       # Transaction distribution
system.tol2bus.trans_dist::CleanEvict          189023                       # Transaction distribution
system.tol2bus.trans_dist::ReadExReq           384134                       # Transaction distribution
system.tol2bus.trans_dist::ReadExResp          384134                       # Transaction distribution
system.tol2bus.trans_dist::ReadCleanReq           738                       # Transaction distribution
system.tol2bus.trans_dist::ReadSharedReq       603239                       # Transaction distribution
system.tol2bus.pkt_count_system.cpu.icache.mem_side_port::system.l2.cpu_side_port         1709                       # Packet count per connected requestor and responder (bytes)
system.tol2bus.pkt_count_system.cpu.dcache.mem_side_port::system.l2.cpu_side_port      2961607                       # Packet count per connected requestor and responder (bytes)
system.tol2bus.pkt_count::total               2963316                       # Packet count per connected requestor and responder (bytes)
system.tol2bus.pkt_size_system.cpu.icache.mem_side_port::system.l2.cpu_side_port        62144                       # Cumulative packet size per connected requestor and responder (bytes)
system.tol2bus.pkt_size_system.cpu.dcache.mem_side_port::system.l2.cpu_side_port    119284672                       # Cumulative packet size per connected requestor and responder (bytes)
system.tol2bus.pkt_size::total              119346816                       # Cumulative packet size per connected requestor and responder (bytes)
system.tol2bus.snoops                          268075                       # Total snoops (count)
system.tol2bus.snoopTraffic                  12125632                       # Total snoop traffic (bytes)
system.tol2bus.snoop_fanout::samples          1256186                       # Request fanout histogram
system.tol2bus.snoop_fanout::mean            0.001505                       # Request fanout histogram
system.tol2bus.snoop_fanout::stdev           0.038770                       # Request fanout histogram
system.tol2bus.snoop_fanout::underflows             0      0.00%      0.00% # Request fanout histogram
system.tol2bus.snoop_fanout::0                1254295     99.85%     99.85% # Request fanout histogram
system.tol2bus.snoop_fanout::1                   1891      0.15%    100.00% # Request fanout histogram
system.tol2bus.snoop_fanout::2                      0      0.00%    100.00% # Request fanout histogram
system.tol2bus.snoop_fanout::overflows              0      0.00%    100.00% # Request fanout histogram
system.tol2bus.snoop_fanout::min_value              0                       # Request fanout histogram
system.tol2bus.snoop_fanout::max_value              1                       # Request fanout histogram
system.tol2bus.snoop_fanout::total            1256186                       # Request fanout histogram
system.tol2bus.power_state.pwrStateResidencyTicks::UNDEFINED  90591069500                       # Cumulative time (in ticks) in various power states
system.tol2bus.reqLayer0.occupancy         1864285500                       # Layer occupancy (ticks)
system.tol2bus.reqLayer0.utilization              2.1                       # Layer utilization (%)
system.tol2bus.respLayer0.occupancy           1107000                       # Layer occupancy (ticks)
system.tol2bus.respLayer0.utilization             0.0                       # Layer utilization (%)
system.tol2bus.respLayer1.occupancy        1481061995                       # Layer occupancy (ticks)
system.tol2bus.respLayer1.utilization             1.6                       # Layer utilization (%)
system.voltage_domain.voltage                       1                       # Voltage in Volts

---------- End Simulation Statistics   ----------
