
---------- Begin Simulation Statistics ----------
final_tick                                90984727500                       # Number of ticks from beginning of simulation (restored from checkpoints and never reset)
host_inst_rate                                 184508                       # Simulator instruction rate (inst/s)
host_mem_usage                                 653576                       # Number of bytes of host memory used
host_op_rate                                   184870                       # Simulator op (including micro ops) rate (op/s)
host_seconds                                   541.98                       # Real time elapsed on the host
host_tick_rate                              167873619                       # Simulator tick rate (ticks/s)
sim_freq                                 1000000000000                       # Frequency of simulated ticks
sim_insts                                   100000001                       # Number of instructions simulated
sim_ops                                     100196356                       # Number of ops (including micro ops) simulated
sim_seconds                                  0.090985                       # Number of seconds simulated
sim_ticks                                 90984727500                       # Number of ticks simulated
system.cpu.committedInsts                   100000001                       # Number of instructions committed
system.cpu.committedOps                     100196356                       # Number of ops (including micro ops) committed
system.cpu.cpi                               1.819695                       # CPI: cycles per instruction
system.cpu.discardedOps                        189679                       # Number of ops (including micro ops) which were discarded before commit
system.cpu.idleCycles                        48632777                       # Total number of cycles that the object has spent stopped
system.cpu.ipc                               0.549543                       # IPC: instructions per cycle
system.cpu.numCycles                        181969455                       # number of cpu cycles simulated
system.cpu.numFetchSuspends                         0                       # Number of times Execute suspended instruction fetching
system.cpu.numWorkItemsCompleted                    0                       # number of work items this cpu completed
system.cpu.numWorkItemsStarted                      0                       # number of work items this cpu started
system.cpu.op_class_0::No_OpClass                   0      0.00%      0.00% # Class of committed instruction
system.cpu.op_class_0::IntAlu                46526863     46.44%     46.44% # Class of committed instruction
system.cpu.op_class_0::IntMult                  20723      0.02%     46.46% # Class of committed instruction
system.cpu.op_class_0::IntDiv                       0      0.00%     46.46% # Class of committed instruction
system.cpu.op_class_0::FloatAdd                     0      0.00%     46.46% # Class of committed instruction
system.cpu.op_class_0::FloatCmp                     0      0.00%     46.46% # Class of committed instruction
system.cpu.op_class_0::FloatCvt                     0      0.00%     46.46% # Class of committed instruction
system.cpu.op_class_0::FloatMult                    0      0.00%     46.46% # Class of committed instruction
system.cpu.op_class_0::FloatMultAcc                 0      0.00%     46.46% # Class of committed instruction
system.cpu.op_class_0::FloatDiv                     0      0.00%     46.46% # Class of committed instruction
system.cpu.op_class_0::FloatMisc                    0      0.00%     46.46% # Class of committed instruction
system.cpu.op_class_0::FloatSqrt                    0      0.00%     46.46% # Class of committed instruction
system.cpu.op_class_0::SimdAdd                      0      0.00%     46.46% # Class of committed instruction
system.cpu.op_class_0::SimdAddAcc                   0      0.00%     46.46% # Class of committed instruction
system.cpu.op_class_0::SimdAlu                      0      0.00%     46.46% # Class of committed instruction
system.cpu.op_class_0::SimdCmp                      0      0.00%     46.46% # Class of committed instruction
system.cpu.op_class_0::SimdCvt                      0      0.00%     46.46% # Class of committed instruction
system.cpu.op_class_0::SimdMisc                     0      0.00%     46.46% # Class of committed instruction
system.cpu.op_class_0::SimdMult                     0      0.00%     46.46% # Class of committed instruction
system.cpu.op_class_0::SimdMultAcc                  0      0.00%     46.46% # Class of committed instruction
system.cpu.op_class_0::SimdShift                    0      0.00%     46.46% # Class of committed instruction
system.cpu.op_class_0::SimdShiftAcc                 0      0.00%     46.46% # Class of committed instruction
system.cpu.op_class_0::SimdDiv                      0      0.00%     46.46% # Class of committed instruction
system.cpu.op_class_0::SimdSqrt                     0      0.00%     46.46% # Class of committed instruction
system.cpu.op_class_0::SimdFloatAdd                 0      0.00%     46.46% # Class of committed instruction
system.cpu.op_class_0::SimdFloatAlu                 0      0.00%     46.46% # Class of committed instruction
system.cpu.op_class_0::SimdFloatCmp                 0      0.00%     46.46% # Class of committed instruction
system.cpu.op_class_0::SimdFloatCvt                 0      0.00%     46.46% # Class of committed instruction
system.cpu.op_class_0::SimdFloatDiv                 0      0.00%     46.46% # Class of committed instruction
system.cpu.op_class_0::SimdFloatMisc               18      0.00%     46.46% # Class of committed instruction
system.cpu.op_class_0::SimdFloatMult                0      0.00%     46.46% # Class of committed instruction
system.cpu.op_class_0::SimdFloatMultAcc             0      0.00%     46.46% # Class of committed instruction
system.cpu.op_class_0::SimdFloatSqrt                0      0.00%     46.46% # Class of committed instruction
system.cpu.op_class_0::SimdReduceAdd                0      0.00%     46.46% # Class of committed instruction
system.cpu.op_class_0::SimdReduceAlu                0      0.00%     46.46% # Class of committed instruction
system.cpu.op_class_0::SimdReduceCmp                0      0.00%     46.46% # Class of committed instruction
system.cpu.op_class_0::SimdFloatReduceAdd            0      0.00%     46.46% # Class of committed instruction
system.cpu.op_class_0::SimdFloatReduceCmp            0      0.00%     46.46% # Class of committed instruction
system.cpu.op_class_0::SimdAes                      0      0.00%     46.46% # Class of committed instruction
system.cpu.op_class_0::SimdAesMix                   0      0.00%     46.46% # Class of committed instruction
system.cpu.op_class_0::SimdSha1Hash                 0      0.00%     46.46% # Class of committed instruction
system.cpu.op_class_0::SimdSha1Hash2                0      0.00%     46.46% # Class of committed instruction
system.cpu.op_class_0::SimdSha256Hash               0      0.00%     46.46% # Class of committed instruction
system.cpu.op_class_0::SimdSha256Hash2              0      0.00%     46.46% # Class of committed instruction
system.cpu.op_class_0::SimdShaSigma2                0      0.00%     46.46% # Class of committed instruction
system.cpu.op_class_0::SimdShaSigma3                0      0.00%     46.46% # Class of committed instruction
system.cpu.op_class_0::SimdPredAlu                  0      0.00%     46.46% # Class of committed instruction
system.cpu.op_class_0::MemRead               42690537     42.61%     89.06% # Class of committed instruction
system.cpu.op_class_0::MemWrite              10958215     10.94%    100.00% # Class of committed instruction
system.cpu.op_class_0::FloatMemRead                 0      0.00%    100.00% # Class of committed instruction
system.cpu.op_class_0::FloatMemWrite                0      0.00%    100.00% # Class of committed instruction
system.cpu.op_class_0::IprAccess                    0      0.00%    100.00% # Class of committed instruction
system.cpu.op_class_0::InstPrefetch                 0      0.00%    100.00% # Class of committed instruction
system.cpu.op_class_0::total                100196356                       # Class of committed instruction
system.cpu.tickCycles                       133336678                       # Number of cycles that the object actually ticked
system.cpu.workload.numSyscalls                    85                       # Number of system calls
system.membus.snoop_filter.hit_multi_requests            0                       # Number of requests hitting in the snoop filter with multiple (>1) holders of the requested data.
system.membus.snoop_filter.hit_multi_snoops            0                       # Number of snoops hitting in the snoop filter with multiple (>1) holders of the requested data.
system.membus.snoop_filter.hit_single_requests       278689                       # Number of requests hitting in the snoop filter with a single holder of the requested data.
system.membus.snoop_filter.hit_single_snoops            0                       # Number of snoops hitting in the snoop filter with a single holder of the requested data.
system.membus.snoop_filter.tot_requests        566139                       # Total number of requests made to the snoop filter.
system.membus.snoop_filter.tot_snoops               0                       # Total number of snoops made to the snoop filter.
system.tol2bus.snoop_filter.hit_multi_requests         1295                       # Number of requests hitting in the snoop filter with multiple (>1) holders of the requested data.
system.tol2bus.snoop_filter.hit_multi_snoops           15                       # Number of snoops hitting in the snoop filter with multiple (>1) holders of the requested data.
system.tol2bus.snoop_filter.hit_single_requests       986960                       # Number of requests hitting in the snoop filter with a single holder of the requested data.
system.tol2bus.snoop_filter.hit_single_snoops         3705                       # Number of snoops hitting in the snoop filter with a single holder of the requested data.
system.tol2bus.snoop_filter.tot_requests      1975026                       # Total number of requests made to the snoop filter.
system.tol2bus.snoop_filter.tot_snoops           3720                       # Total number of snoops made to the snoop filter.
system.clk_domain.clock                          1000                       # Clock period in ticks
system.cpu.branchPred.lookups                 4485913                       # Number of BP lookups
system.cpu.branchPred.condPredicted           3735551                       # Number of conditional branches predicted
system.cpu.branchPred.condIncorrect             81005                       # Number of conditional branches incorrect
system.cpu.branchPred.BTBLookups              2103895                       # Number of BTB lookups
system.cpu.branchPred.BTBHits                 2101893                       # Number of BTB hits
system.cpu.branchPred.BTBHitPct             99.904843                       # BTB Hit Percentage
system.cpu.branchPred.RASUsed                   65389                       # Number of times the RAS was used to get a target.
system.cpu.branchPred.RASIncorrect                 14                       # Number of incorrect RAS predictions.
system.cpu.branchPred.indirectLookups             699                       # Number of indirect predictor lookups.
system.cpu.branchPred.indirectHits                289                       # Number of indirect target hits.
system.cpu.branchPred.indirectMisses              410                       # Number of indirect misses.
system.cpu.branchPred.indirectMispredicted          171                       # Number of mispredicted indirect branches.
system.cpu.dcache.demand_hits::.cpu.data     51035019                       # number of demand (read+write) hits
system.cpu.dcache.demand_hits::total         51035019                       # number of demand (read+write) hits
system.cpu.dcache.overall_hits::.cpu.data     51035443                       # number of overall hits
system.cpu.dcache.overall_hits::total        51035443                       # number of overall hits
system.cpu.dcache.demand_misses::.cpu.data      1047232                       # number of demand (read+write) misses
system.cpu.dcache.demand_misses::total        1047232                       # number of demand (read+write) misses
system.cpu.dcache.overall_misses::.cpu.data      1055227                       # number of overall misses
system.cpu.dcache.overall_misses::total       1055227                       # number of overall misses
system.cpu.dcache.demand_miss_latency::.cpu.data  36262333996                       # number of demand (read+write) miss cycles
system.cpu.dcache.demand_miss_latency::total  36262333996                       # number of demand (read+write) miss cycles
system.cpu.dcache.overall_miss_latency::.cpu.data  36262333996                       # number of overall miss cycles
system.cpu.dcache.overall_miss_latency::total  36262333996                       # number of overall miss cycles
system.cpu.dcache.demand_accesses::.cpu.data     52082251                       # number of demand (read+write) accesses
system.cpu.dcache.demand_accesses::total     52082251                       # number of demand (read+write) accesses
system.cpu.dcache.overall_accesses::.cpu.data     52090670                       # number of overall (read+write) accesses
system.cpu.dcache.overall_accesses::total     52090670                       # number of overall (read+write) accesses
system.cpu.dcache.demand_miss_rate::.cpu.data     0.020107                       # miss rate for demand accesses
system.cpu.dcache.demand_miss_rate::total     0.020107                       # miss rate for demand accesses
system.cpu.dcache.overall_miss_rate::.cpu.data     0.020258                       # miss rate for overall accesses
system.cpu.dcache.overall_miss_rate::total     0.020258                       # miss rate for overall accesses
system.cpu.dcache.demand_avg_miss_latency::.cpu.data 34626.839130                       # average overall miss latency
system.cpu.dcache.demand_avg_miss_latency::total 34626.839130                       # average overall miss latency
system.cpu.dcache.overall_avg_miss_latency::.cpu.data 34364.486500                       # average overall miss latency
system.cpu.dcache.overall_avg_miss_latency::total 34364.486500                       # average overall miss latency
system.cpu.dcache.blocked_cycles::no_mshrs       219069                       # number of cycles access was blocked
system.cpu.dcache.blocked_cycles::no_targets            0                       # number of cycles access was blocked
system.cpu.dcache.blocked::no_mshrs              4333                       # number of cycles access was blocked
system.cpu.dcache.blocked::no_targets               0                       # number of cycles access was blocked
system.cpu.dcache.avg_blocked_cycles::no_mshrs    50.558274                       # average number of cycles each access was blocked
system.cpu.dcache.avg_blocked_cycles::no_targets          nan                       # average number of cycles each access was blocked
system.cpu.dcache.writebacks::.writebacks       877925                       # number of writebacks
system.cpu.dcache.writebacks::total            877925                       # number of writebacks
system.cpu.dcache.demand_mshr_hits::.cpu.data        67858                       # number of demand (read+write) MSHR hits
system.cpu.dcache.demand_mshr_hits::total        67858                       # number of demand (read+write) MSHR hits
system.cpu.dcache.overall_mshr_hits::.cpu.data        67858                       # number of overall MSHR hits
system.cpu.dcache.overall_mshr_hits::total        67858                       # number of overall MSHR hits
system.cpu.dcache.demand_mshr_misses::.cpu.data       979374                       # number of demand (read+write) MSHR misses
system.cpu.dcache.demand_mshr_misses::total       979374                       # number of demand (read+write) MSHR misses
system.cpu.dcache.overall_mshr_misses::.cpu.data       987365                       # number of overall MSHR misses
system.cpu.dcache.overall_mshr_misses::total       987365                       # number of overall MSHR misses
system.cpu.dcache.demand_mshr_miss_latency::.cpu.data  33568792500                       # number of demand (read+write) MSHR miss cycles
system.cpu.dcache.demand_mshr_miss_latency::total  33568792500                       # number of demand (read+write) MSHR miss cycles
system.cpu.dcache.overall_mshr_miss_latency::.cpu.data  34216326499                       # number of overall MSHR miss cycles
system.cpu.dcache.overall_mshr_miss_latency::total  34216326499                       # number of overall MSHR miss cycles
system.cpu.dcache.demand_mshr_miss_rate::.cpu.data     0.018804                       # mshr miss rate for demand accesses
system.cpu.dcache.demand_mshr_miss_rate::total     0.018804                       # mshr miss rate for demand accesses
system.cpu.dcache.overall_mshr_miss_rate::.cpu.data     0.018955                       # mshr miss rate for overall accesses
system.cpu.dcache.overall_mshr_miss_rate::total     0.018955                       # mshr miss rate for overall accesses
system.cpu.dcache.demand_avg_mshr_miss_latency::.cpu.data 34275.764417                       # average overall mshr miss latency
system.cpu.dcache.demand_avg_mshr_miss_latency::total 34275.764417                       # average overall mshr miss latency
system.cpu.dcache.overall_avg_mshr_miss_latency::.cpu.data 34654.182090                       # average overall mshr miss latency
system.cpu.dcache.overall_avg_mshr_miss_latency::total 34654.182090                       # average overall mshr miss latency
system.cpu.dcache.replacements                 986853                       # number of replacements
system.cpu.dcache.ReadReq_hits::.cpu.data     40534549                       # number of ReadReq hits
system.cpu.dcache.ReadReq_hits::total        40534549                       # number of ReadReq hits
system.cpu.dcache.ReadReq_misses::.cpu.data       598620                       # number of ReadReq misses
system.cpu.dcache.ReadReq_misses::total        598620                       # number of ReadReq misses
system.cpu.dcache.ReadReq_miss_latency::.cpu.data  15482563000                       # number of ReadReq miss cycles
system.cpu.dcache.ReadReq_miss_latency::total  15482563000                       # number of ReadReq miss cycles
system.cpu.dcache.ReadReq_accesses::.cpu.data     41133169                       # number of ReadReq accesses(hits+misses)
system.cpu.dcache.ReadReq_accesses::total     41133169                       # number of ReadReq accesses(hits+misses)
system.cpu.dcache.ReadReq_miss_rate::.cpu.data     0.014553                       # miss rate for ReadReq accesses
system.cpu.dcache.ReadReq_miss_rate::total     0.014553                       # miss rate for ReadReq accesses
system.cpu.dcache.ReadReq_avg_miss_latency::.cpu.data 25863.758311                       # average ReadReq miss latency
system.cpu.dcache.ReadReq_avg_miss_latency::total 25863.758311                       # average ReadReq miss latency
system.cpu.dcache.ReadReq_mshr_hits::.cpu.data         3165                       # number of ReadReq MSHR hits
system.cpu.dcache.ReadReq_mshr_hits::total         3165                       # number of ReadReq MSHR hits
system.cpu.dcache.ReadReq_mshr_misses::.cpu.data       595455                       # number of ReadReq MSHR misses
system.cpu.dcache.ReadReq_mshr_misses::total       595455                       # number of ReadReq MSHR misses
system.cpu.dcache.ReadReq_mshr_miss_latency::.cpu.data  14814761500                       # number of ReadReq MSHR miss cycles
system.cpu.dcache.ReadReq_mshr_miss_latency::total  14814761500                       # number of ReadReq MSHR miss cycles
system.cpu.dcache.ReadReq_mshr_miss_rate::.cpu.data     0.014476                       # mshr miss rate for ReadReq accesses
system.cpu.dcache.ReadReq_mshr_miss_rate::total     0.014476                       # mshr miss rate for ReadReq accesses
system.cpu.dcache.ReadReq_avg_mshr_miss_latency::.cpu.data 24879.733145                       # average ReadReq mshr miss latency
system.cpu.dcache.ReadReq_avg_mshr_miss_latency::total 24879.733145                       # average ReadReq mshr miss latency
system.cpu.dcache.WriteReq_hits::.cpu.data     10500470                       # number of WriteReq hits
system.cpu.dcache.WriteReq_hits::total       10500470                       # number of WriteReq hits
system.cpu.dcache.WriteReq_misses::.cpu.data       448612                       # number of WriteReq misses
system.cpu.dcache.WriteReq_misses::total       448612                       # number of WriteReq misses
system.cpu.dcache.WriteReq_miss_latency::.cpu.data  20779770996                       # number of WriteReq miss cycles
system.cpu.dcache.WriteReq_miss_latency::total  20779770996                       # number of WriteReq miss cycles
system.cpu.dcache.WriteReq_accesses::.cpu.data     10949082                       # number of WriteReq accesses(hits+misses)
system.cpu.dcache.WriteReq_accesses::total     10949082                       # number of WriteReq accesses(hits+misses)
system.cpu.dcache.WriteReq_miss_rate::.cpu.data     0.040973                       # miss rate for WriteReq accesses
system.cpu.dcache.WriteReq_miss_rate::total     0.040973                       # miss rate for WriteReq accesses
system.cpu.dcache.WriteReq_avg_miss_latency::.cpu.data 46320.140781                       # average WriteReq miss latency
system.cpu.dcache.WriteReq_avg_miss_latency::total 46320.140781                       # average WriteReq miss latency
system.cpu.dcache.WriteReq_mshr_hits::.cpu.data        64693                       # number of WriteReq MSHR hits
system.cpu.dcache.WriteReq_mshr_hits::total        64693                       # number of WriteReq MSHR hits
system.cpu.dcache.WriteReq_mshr_misses::.cpu.data       383919                       # number of WriteReq MSHR misses
system.cpu.dcache.WriteReq_mshr_misses::total       383919                       # number of WriteReq MSHR misses
system.cpu.dcache.WriteReq_mshr_miss_latency::.cpu.data  18754031000                       # number of WriteReq MSHR miss cycles
system.cpu.dcache.WriteReq_mshr_miss_latency::total  18754031000                       # number of WriteReq MSHR miss cycles
system.cpu.dcache.WriteReq_mshr_miss_rate::.cpu.data     0.035064                       # mshr miss rate for WriteReq accesses
system.cpu.dcache.WriteReq_mshr_miss_rate::total     0.035064                       # mshr miss rate for WriteReq accesses
system.cpu.dcache.WriteReq_avg_mshr_miss_latency::.cpu.data 48848.926466                       # average WriteReq mshr miss latency
system.cpu.dcache.WriteReq_avg_mshr_miss_latency::total 48848.926466                       # average WriteReq mshr miss latency
system.cpu.dcache.SoftPFReq_hits::.cpu.data          424                       # number of SoftPFReq hits
system.cpu.dcache.SoftPFReq_hits::total           424                       # number of SoftPFReq hits
system.cpu.dcache.SoftPFReq_misses::.cpu.data         7995                       # number of SoftPFReq misses
system.cpu.dcache.SoftPFReq_misses::total         7995                       # number of SoftPFReq misses
system.cpu.dcache.SoftPFReq_accesses::.cpu.data         8419                       # number of SoftPFReq accesses(hits+misses)
system.cpu.dcache.SoftPFReq_accesses::total         8419                       # number of SoftPFReq accesses(hits+misses)
system.cpu.dcache.SoftPFReq_miss_rate::.cpu.data     0.949638                       # miss rate for SoftPFReq accesses
system.cpu.dcache.SoftPFReq_miss_rate::total     0.949638                       # miss rate for SoftPFReq accesses
system.cpu.dcache.SoftPFReq_mshr_misses::.cpu.data         7991                       # number of SoftPFReq MSHR misses
system.cpu.dcache.SoftPFReq_mshr_misses::total         7991                       # number of SoftPFReq MSHR misses
system.cpu.dcache.SoftPFReq_mshr_miss_latency::.cpu.data    647533999                       # number of SoftPFReq MSHR miss cycles
system.cpu.dcache.SoftPFReq_mshr_miss_latency::total    647533999                       # number of SoftPFReq MSHR miss cycles
system.cpu.dcache.SoftPFReq_mshr_miss_rate::.cpu.data     0.949163                       # mshr miss rate for SoftPFReq accesses
system.cpu.dcache.SoftPFReq_mshr_miss_rate::total     0.949163                       # mshr miss rate for SoftPFReq accesses
system.cpu.dcache.SoftPFReq_avg_mshr_miss_latency::.cpu.data 81032.911901                       # average SoftPFReq mshr miss latency
system.cpu.dcache.SoftPFReq_avg_mshr_miss_latency::total 81032.911901                       # average SoftPFReq mshr miss latency
system.cpu.dcache.LoadLockedReq_hits::.cpu.data           38                       # number of LoadLockedReq hits
system.cpu.dcache.LoadLockedReq_hits::total           38                       # number of LoadLockedReq hits
system.cpu.dcache.LoadLockedReq_accesses::.cpu.data           38                       # number of LoadLockedReq accesses(hits+misses)
system.cpu.dcache.LoadLockedReq_accesses::total           38                       # number of LoadLockedReq accesses(hits+misses)
system.cpu.dcache.StoreCondReq_hits::.cpu.data           38                       # number of StoreCondReq hits
system.cpu.dcache.StoreCondReq_hits::total           38                       # number of StoreCondReq hits
system.cpu.dcache.StoreCondReq_accesses::.cpu.data           38                       # number of StoreCondReq accesses(hits+misses)
system.cpu.dcache.StoreCondReq_accesses::total           38                       # number of StoreCondReq accesses(hits+misses)
system.cpu.dcache.power_state.pwrStateResidencyTicks::UNDEFINED  90984727500                       # Cumulative time (in ticks) in various power states
system.cpu.dcache.tags.tagsinuse           505.671341                       # Cycle average of tags in use
system.cpu.dcache.tags.total_refs            52022884                       # Total number of references to valid blocks.
system.cpu.dcache.tags.sampled_refs            987365                       # Sample count of references to valid blocks.
system.cpu.dcache.tags.avg_refs             52.688605                       # Average number of references to valid blocks.
system.cpu.dcache.tags.warmup_cycle            176500                       # Cycle when the warmup percentage was hit.
system.cpu.dcache.tags.occ_blocks::.cpu.data   505.671341                       # Average occupied blocks per requestor
system.cpu.dcache.tags.occ_percent::.cpu.data     0.987639                       # Average percentage of cache occupancy
system.cpu.dcache.tags.occ_percent::total     0.987639                       # Average percentage of cache occupancy
system.cpu.dcache.tags.occ_task_id_blocks::1024          512                       # Occupied blocks per task id
system.cpu.dcache.tags.age_task_id_blocks_1024::0           69                       # Occupied blocks per task id
system.cpu.dcache.tags.age_task_id_blocks_1024::1          217                       # Occupied blocks per task id
system.cpu.dcache.tags.age_task_id_blocks_1024::2          226                       # Occupied blocks per task id
system.cpu.dcache.tags.occ_task_id_percent::1024            1                       # Percentage of cache occupancy per task id
system.cpu.dcache.tags.tag_accesses          53078111                       # Number of tag accesses
system.cpu.dcache.tags.data_accesses         53078111                       # Number of data accesses
system.cpu.dcache.tags.power_state.pwrStateResidencyTicks::UNDEFINED  90984727500                       # Cumulative time (in ticks) in various power states
system.cpu.dtb.instHits                             0                       # ITB inst hits
system.cpu.dtb.instMisses                           0                       # ITB inst misses
system.cpu.dtb.readHits                             0                       # DTB read hits
system.cpu.dtb.readMisses                           0                       # DTB read misses
system.cpu.dtb.writeHits                            0                       # DTB write hits
system.cpu.dtb.writeMisses                          0                       # DTB write misses
system.cpu.dtb.inserts                              0                       # Number of times an entry is inserted into the TLB
system.cpu.dtb.flushTlb                             0                       # Number of times complete TLB was flushed
system.cpu.dtb.flushTlbMva                          0                       # Number of times TLB was flushed by MVA
system.cpu.dtb.flushTlbMvaAsid                      0                       # Number of times TLB was flushed by MVA & ASID
system.cpu.dtb.flushTlbAsid                         0                       # Number of times TLB was flushed by ASID
system.cpu.dtb.flushedEntries                       0                       # Number of entries that have been flushed from TLB
system.cpu.dtb.alignFaults                          0                       # Number of TLB faults due to alignment restrictions
system.cpu.dtb.prefetchFaults                       0                       # Number of TLB faults due to prefetch
system.cpu.dtb.domainFaults                         0                       # Number of TLB faults due to domain restrictions
system.cpu.dtb.permsFaults                          0                       # Number of TLB faults due to permissions restrictions
system.cpu.dtb.readAccesses                         0                       # DTB read accesses
system.cpu.dtb.writeAccesses                        0                       # DTB write accesses
system.cpu.dtb.instAccesses                         0                       # ITB inst accesses
system.cpu.dtb.hits                                 0                       # Total TLB (inst and data) hits
system.cpu.dtb.misses                               0                       # Total TLB (inst and data) misses
system.cpu.dtb.accesses                             0                       # Total TLB (inst and data) accesses
system.cpu.dtb.stage2_mmu.stage2_tlb.instHits            0                       # ITB inst hits
system.cpu.dtb.stage2_mmu.stage2_tlb.instMisses            0                       # ITB inst misses
system.cpu.dtb.stage2_mmu.stage2_tlb.readHits            0                       # DTB read hits
system.cpu.dtb.stage2_mmu.stage2_tlb.readMisses            0                       # DTB read misses
system.cpu.dtb.stage2_mmu.stage2_tlb.writeHits            0                       # DTB write hits
system.cpu.dtb.stage2_mmu.stage2_tlb.writeMisses            0                       # DTB write misses
system.cpu.dtb.stage2_mmu.stage2_tlb.inserts            0                       # Number of times an entry is inserted into the TLB
system.cpu.dtb.stage2_mmu.stage2_tlb.flushTlb            0                       # Number of times complete TLB was flushed
system.cpu.dtb.stage2_mmu.stage2_tlb.flushTlbMva            0                       # Number of times TLB was flushed by MVA
system.cpu.dtb.stage2_mmu.stage2_tlb.flushTlbMvaAsid            0                       # Number of times TLB was flushed by MVA & ASID
system.cpu.dtb.stage2_mmu.stage2_tlb.flushTlbAsid            0                       # Number of times TLB was flushed by ASID
system.cpu.dtb.stage2_mmu.stage2_tlb.flushedEntries            0                       # Number of entries that have been flushed from TLB
system.cpu.dtb.stage2_mmu.stage2_tlb.alignFaults            0                       # Number of TLB faults due to alignment restrictions
system.cpu.dtb.stage2_mmu.stage2_tlb.prefetchFaults            0                       # Number of TLB faults due to prefetch
system.cpu.dtb.stage2_mmu.stage2_tlb.domainFaults            0                       # Number of TLB faults due to domain restrictions
system.cpu.dtb.stage2_mmu.stage2_tlb.permsFaults            0                       # Number of TLB faults due to permissions restrictions
system.cpu.dtb.stage2_mmu.stage2_tlb.readAccesses            0                       # DTB read accesses
system.cpu.dtb.stage2_mmu.stage2_tlb.writeAccesses            0                       # DTB write accesses
system.cpu.dtb.stage2_mmu.stage2_tlb.instAccesses            0                       # ITB inst accesses
system.cpu.dtb.stage2_mmu.stage2_tlb.hits            0                       # Total TLB (inst and data) hits
system.cpu.dtb.stage2_mmu.stage2_tlb.misses            0                       # Total TLB (inst and data) misses
system.cpu.dtb.stage2_mmu.stage2_tlb.accesses            0                       # Total TLB (inst and data) accesses
system.cpu.dtb.stage2_mmu.stage2_tlb.walker.walks            0                       # Table walker walks requested
system.cpu.dtb.stage2_mmu.stage2_tlb.walker.requestOrigin_Requested::Data            0                       # Table walker requests started/completed, data/inst
system.cpu.dtb.stage2_mmu.stage2_tlb.walker.requestOrigin_Requested::Inst            0                       # Table walker requests started/completed, data/inst
system.cpu.dtb.stage2_mmu.stage2_tlb.walker.requestOrigin_Requested::total            0                       # Table walker requests started/completed, data/inst
system.cpu.dtb.stage2_mmu.stage2_tlb.walker.requestOrigin_Completed::Data            0                       # Table walker requests started/completed, data/inst
system.cpu.dtb.stage2_mmu.stage2_tlb.walker.requestOrigin_Completed::Inst            0                       # Table walker requests started/completed, data/inst
system.cpu.dtb.stage2_mmu.stage2_tlb.walker.requestOrigin_Completed::total            0                       # Table walker requests started/completed, data/inst
system.cpu.dtb.stage2_mmu.stage2_tlb.walker.requestOrigin::total            0                       # Table walker requests started/completed, data/inst
system.cpu.dtb.stage2_mmu.stage2_tlb.walker.power_state.pwrStateResidencyTicks::UNDEFINED  90984727500                       # Cumulative time (in ticks) in various power states
system.cpu.dtb.walker.walks                         0                       # Table walker walks requested
system.cpu.dtb.walker.requestOrigin_Requested::Data            0                       # Table walker requests started/completed, data/inst
system.cpu.dtb.walker.requestOrigin_Requested::Inst            0                       # Table walker requests started/completed, data/inst
system.cpu.dtb.walker.requestOrigin_Requested::total            0                       # Table walker requests started/completed, data/inst
system.cpu.dtb.walker.requestOrigin_Completed::Data            0                       # Table walker requests started/completed, data/inst
system.cpu.dtb.walker.requestOrigin_Completed::Inst            0                       # Table walker requests started/completed, data/inst
system.cpu.dtb.walker.requestOrigin_Completed::total            0                       # Table walker requests started/completed, data/inst
system.cpu.dtb.walker.requestOrigin::total            0                       # Table walker requests started/completed, data/inst
system.cpu.dtb.walker.power_state.pwrStateResidencyTicks::UNDEFINED  90984727500                       # Cumulative time (in ticks) in various power states
system.cpu.fetch2.intInstructions            42686499                       # Number of integer instructions successfully decoded
system.cpu.fetch2.fpInstructions                    0                       # Number of floating point instructions successfully decoded
system.cpu.fetch2.vecInstructions                   0                       # Number of SIMD instructions successfully decoded
system.cpu.fetch2.loadInstructions           43475528                       # Number of memory load instructions successfully decoded
system.cpu.fetch2.storeInstructions          11025107                       # Number of memory store instructions successfully decoded
system.cpu.fetch2.amoInstructions                   0                       # Number of memory atomic instructions successfully decoded
system.cpu.icache.demand_hits::.cpu.inst     10278761                       # number of demand (read+write) hits
system.cpu.icache.demand_hits::total         10278761                       # number of demand (read+write) hits
system.cpu.icache.overall_hits::.cpu.inst     10278761                       # number of overall hits
system.cpu.icache.overall_hits::total        10278761                       # number of overall hits
system.cpu.icache.demand_misses::.cpu.inst          702                       # number of demand (read+write) misses
system.cpu.icache.demand_misses::total            702                       # number of demand (read+write) misses
system.cpu.icache.overall_misses::.cpu.inst          702                       # number of overall misses
system.cpu.icache.overall_misses::total           702                       # number of overall misses
system.cpu.icache.demand_miss_latency::.cpu.inst     53194000                       # number of demand (read+write) miss cycles
system.cpu.icache.demand_miss_latency::total     53194000                       # number of demand (read+write) miss cycles
system.cpu.icache.overall_miss_latency::.cpu.inst     53194000                       # number of overall miss cycles
system.cpu.icache.overall_miss_latency::total     53194000                       # number of overall miss cycles
system.cpu.icache.demand_accesses::.cpu.inst     10279463                       # number of demand (read+write) accesses
system.cpu.icache.demand_accesses::total     10279463                       # number of demand (read+write) accesses
system.cpu.icache.overall_accesses::.cpu.inst     10279463                       # number of overall (read+write) accesses
system.cpu.icache.overall_accesses::total     10279463                       # number of overall (read+write) accesses
system.cpu.icache.demand_miss_rate::.cpu.inst     0.000068                       # miss rate for demand accesses
system.cpu.icache.demand_miss_rate::total     0.000068                       # miss rate for demand accesses
system.cpu.icache.overall_miss_rate::.cpu.inst     0.000068                       # miss rate for overall accesses
system.cpu.icache.overall_miss_rate::total     0.000068                       # miss rate for overall accesses
system.cpu.icache.demand_avg_miss_latency::.cpu.inst 75774.928775                       # average overall miss latency
system.cpu.icache.demand_avg_miss_latency::total 75774.928775                       # average overall miss latency
system.cpu.icache.overall_avg_miss_latency::.cpu.inst 75774.928775                       # average overall miss latency
system.cpu.icache.overall_avg_miss_latency::total 75774.928775                       # average overall miss latency
system.cpu.icache.blocked_cycles::no_mshrs            0                       # number of cycles access was blocked
system.cpu.icache.blocked_cycles::no_targets            0                       # number of cycles access was blocked
system.cpu.icache.blocked::no_mshrs                 0                       # number of cycles access was blocked
system.cpu.icache.blocked::no_targets               0                       # number of cycles access was blocked
system.cpu.icache.avg_blocked_cycles::no_mshrs          nan                       # average number of cycles each access was blocked
system.cpu.icache.avg_blocked_cycles::no_targets          nan                       # average number of cycles each access was blocked
system.cpu.icache.writebacks::.writebacks          106                       # number of writebacks
system.cpu.icache.writebacks::total               106                       # number of writebacks
system.cpu.icache.demand_mshr_misses::.cpu.inst          702                       # number of demand (read+write) MSHR misses
system.cpu.icache.demand_mshr_misses::total          702                       # number of demand (read+write) MSHR misses
system.cpu.icache.overall_mshr_misses::.cpu.inst          702                       # number of overall MSHR misses
system.cpu.icache.overall_mshr_misses::total          702                       # number of overall MSHR misses
system.cpu.icache.demand_mshr_miss_latency::.cpu.inst     52492000                       # number of demand (read+write) MSHR miss cycles
system.cpu.icache.demand_mshr_miss_latency::total     52492000                       # number of demand (read+write) MSHR miss cycles
system.cpu.icache.overall_mshr_miss_latency::.cpu.inst     52492000                       # number of overall MSHR miss cycles
system.cpu.icache.overall_mshr_miss_latency::total     52492000                       # number of overall MSHR miss cycles
system.cpu.icache.demand_mshr_miss_rate::.cpu.inst     0.000068                       # mshr miss rate for demand accesses
system.cpu.icache.demand_mshr_miss_rate::total     0.000068                       # mshr miss rate for demand accesses
system.cpu.icache.overall_mshr_miss_rate::.cpu.inst     0.000068                       # mshr miss rate for overall accesses
system.cpu.icache.overall_mshr_miss_rate::total     0.000068                       # mshr miss rate for overall accesses
system.cpu.icache.demand_avg_mshr_miss_latency::.cpu.inst 74774.928775                       # average overall mshr miss latency
system.cpu.icache.demand_avg_mshr_miss_latency::total 74774.928775                       # average overall mshr miss latency
system.cpu.icache.overall_avg_mshr_miss_latency::.cpu.inst 74774.928775                       # average overall mshr miss latency
system.cpu.icache.overall_avg_mshr_miss_latency::total 74774.928775                       # average overall mshr miss latency
system.cpu.icache.replacements                    106                       # number of replacements
system.cpu.icache.ReadReq_hits::.cpu.inst     10278761                       # number of ReadReq hits
system.cpu.icache.ReadReq_hits::total        10278761                       # number of ReadReq hits
system.cpu.icache.ReadReq_misses::.cpu.inst          702                       # number of ReadReq misses
system.cpu.icache.ReadReq_misses::total           702                       # number of ReadReq misses
system.cpu.icache.ReadReq_miss_latency::.cpu.inst     53194000                       # number of ReadReq miss cycles
system.cpu.icache.ReadReq_miss_latency::total     53194000                       # number of ReadReq miss cycles
system.cpu.icache.ReadReq_accesses::.cpu.inst     10279463                       # number of ReadReq accesses(hits+misses)
system.cpu.icache.ReadReq_accesses::total     10279463                       # number of ReadReq accesses(hits+misses)
system.cpu.icache.ReadReq_miss_rate::.cpu.inst     0.000068                       # miss rate for ReadReq accesses
system.cpu.icache.ReadReq_miss_rate::total     0.000068                       # miss rate for ReadReq accesses
system.cpu.icache.ReadReq_avg_miss_latency::.cpu.inst 75774.928775                       # average ReadReq miss latency
system.cpu.icache.ReadReq_avg_miss_latency::total 75774.928775                       # average ReadReq miss latency
system.cpu.icache.ReadReq_mshr_misses::.cpu.inst          702                       # number of ReadReq MSHR misses
system.cpu.icache.ReadReq_mshr_misses::total          702                       # number of ReadReq MSHR misses
system.cpu.icache.ReadReq_mshr_miss_latency::.cpu.inst     52492000                       # number of ReadReq MSHR miss cycles
system.cpu.icache.ReadReq_mshr_miss_latency::total     52492000                       # number of ReadReq MSHR miss cycles
system.cpu.icache.ReadReq_mshr_miss_rate::.cpu.inst     0.000068                       # mshr miss rate for ReadReq accesses
system.cpu.icache.ReadReq_mshr_miss_rate::total     0.000068                       # mshr miss rate for ReadReq accesses
system.cpu.icache.ReadReq_avg_mshr_miss_latency::.cpu.inst 74774.928775                       # average ReadReq mshr miss latency
system.cpu.icache.ReadReq_avg_mshr_miss_latency::total 74774.928775                       # average ReadReq mshr miss latency
system.cpu.icache.power_state.pwrStateResidencyTicks::UNDEFINED  90984727500                       # Cumulative time (in ticks) in various power states
system.cpu.icache.tags.tagsinuse           492.331445                       # Cycle average of tags in use
system.cpu.icache.tags.total_refs            10279463                       # Total number of references to valid blocks.
system.cpu.icache.tags.sampled_refs               702                       # Sample count of references to valid blocks.
system.cpu.icache.tags.avg_refs          14643.109687                       # Average number of references to valid blocks.
system.cpu.icache.tags.warmup_cycle             87500                       # Cycle when the warmup percentage was hit.
system.cpu.icache.tags.occ_blocks::.cpu.inst   492.331445                       # Average occupied blocks per requestor
system.cpu.icache.tags.occ_percent::.cpu.inst     0.240396                       # Average percentage of cache occupancy
system.cpu.icache.tags.occ_percent::total     0.240396                       # Average percentage of cache occupancy
system.cpu.icache.tags.occ_task_id_blocks::1024          596                       # Occupied blocks per task id
system.cpu.icache.tags.age_task_id_blocks_1024::3          107                       # Occupied blocks per task id
system.cpu.icache.tags.age_task_id_blocks_1024::4          489                       # Occupied blocks per task id
system.cpu.icache.tags.occ_task_id_percent::1024     0.291016                       # Percentage of cache occupancy per task id
system.cpu.icache.tags.tag_accesses          10280165                       # Number of tag accesses
system.cpu.icache.tags.data_accesses         10280165                       # Number of data accesses
system.cpu.icache.tags.power_state.pwrStateResidencyTicks::UNDEFINED  90984727500                       # Cumulative time (in ticks) in various power states
system.cpu.itb.instHits                             0                       # ITB inst hits
system.cpu.itb.instMisses                           0                       # ITB inst misses
system.cpu.itb.readHits                             0                       # DTB read hits
system.cpu.itb.readMisses                           0                       # DTB read misses
system.cpu.itb.writeHits                            0                       # DTB write hits
system.cpu.itb.writeMisses                          0                       # DTB write misses
system.cpu.itb.inserts                              0                       # Number of times an entry is inserted into the TLB
system.cpu.itb.flushTlb                             0                       # Number of times complete TLB was flushed
system.cpu.itb.flushTlbMva                          0                       # Number of times TLB was flushed by MVA
system.cpu.itb.flushTlbMvaAsid                      0                       # Number of times TLB was flushed by MVA & ASID
system.cpu.itb.flushTlbAsid                         0                       # Number of times TLB was flushed by ASID
system.cpu.itb.flushedEntries                       0                       # Number of entries that have been flushed from TLB
system.cpu.itb.alignFaults                          0                       # Number of TLB faults due to alignment restrictions
system.cpu.itb.prefetchFaults                       0                       # Number of TLB faults due to prefetch
system.cpu.itb.domainFaults                         0                       # Number of TLB faults due to domain restrictions
system.cpu.itb.permsFaults                          0                       # Number of TLB faults due to permissions restrictions
system.cpu.itb.readAccesses                         0                       # DTB read accesses
system.cpu.itb.writeAccesses                        0                       # DTB write accesses
system.cpu.itb.instAccesses                         0                       # ITB inst accesses
system.cpu.itb.hits                                 0                       # Total TLB (inst and data) hits
system.cpu.itb.misses                               0                       # Total TLB (inst and data) misses
system.cpu.itb.accesses                             0                       # Total TLB (inst and data) accesses
system.cpu.itb.stage2_mmu.stage2_tlb.instHits            0                       # ITB inst hits
system.cpu.itb.stage2_mmu.stage2_tlb.instMisses            0                       # ITB inst misses
system.cpu.itb.stage2_mmu.stage2_tlb.readHits            0                       # DTB read hits
system.cpu.itb.stage2_mmu.stage2_tlb.readMisses            0                       # DTB read misses
system.cpu.itb.stage2_mmu.stage2_tlb.writeHits            0                       # DTB write hits
system.cpu.itb.stage2_mmu.stage2_tlb.writeMisses            0                       # DTB write misses
system.cpu.itb.stage2_mmu.stage2_tlb.inserts            0                       # Number of times an entry is inserted into the TLB
system.cpu.itb.stage2_mmu.stage2_tlb.flushTlb            0                       # Number of times complete TLB was flushed
system.cpu.itb.stage2_mmu.stage2_tlb.flushTlbMva            0                       # Number of times TLB was flushed by MVA
system.cpu.itb.stage2_mmu.stage2_tlb.flushTlbMvaAsid            0                       # Number of times TLB was flushed by MVA & ASID
system.cpu.itb.stage2_mmu.stage2_tlb.flushTlbAsid            0                       # Number of times TLB was flushed by ASID
system.cpu.itb.stage2_mmu.stage2_tlb.flushedEntries            0                       # Number of entries that have been flushed from TLB
system.cpu.itb.stage2_mmu.stage2_tlb.alignFaults            0                       # Number of TLB faults due to alignment restrictions
system.cpu.itb.stage2_mmu.stage2_tlb.prefetchFaults            0                       # Number of TLB faults due to prefetch
system.cpu.itb.stage2_mmu.stage2_tlb.domainFaults            0                       # Number of TLB faults due to domain restrictions
system.cpu.itb.stage2_mmu.stage2_tlb.permsFaults            0                       # Number of TLB faults due to permissions restrictions
system.cpu.itb.stage2_mmu.stage2_tlb.readAccesses            0                       # DTB read accesses
system.cpu.itb.stage2_mmu.stage2_tlb.writeAccesses            0                       # DTB write accesses
system.cpu.itb.stage2_mmu.stage2_tlb.instAccesses            0                       # ITB inst accesses
system.cpu.itb.stage2_mmu.stage2_tlb.hits            0                       # Total TLB (inst and data) hits
system.cpu.itb.stage2_mmu.stage2_tlb.misses            0                       # Total TLB (inst and data) misses
system.cpu.itb.stage2_mmu.stage2_tlb.accesses            0                       # Total TLB (inst and data) accesses
system.cpu.itb.stage2_mmu.stage2_tlb.walker.walks            0                       # Table walker walks requested
system.cpu.itb.stage2_mmu.stage2_tlb.walker.requestOrigin_Requested::Data            0                       # Table walker requests started/completed, data/inst
system.cpu.itb.stage2_mmu.stage2_tlb.walker.requestOrigin_Requested::Inst            0                       # Table walker requests started/completed, data/inst
system.cpu.itb.stage2_mmu.stage2_tlb.walker.requestOrigin_Requested::total            0                       # Table walker requests started/completed, data/inst
system.cpu.itb.stage2_mmu.stage2_tlb.walker.requestOrigin_Completed::Data            0                       # Table walker requests started/completed, data/inst
system.cpu.itb.stage2_mmu.stage2_tlb.walker.requestOrigin_Completed::Inst            0                       # Table walker requests started/completed, data/inst
system.cpu.itb.stage2_mmu.stage2_tlb.walker.requestOrigin_Completed::total            0                       # Table walker requests started/completed, data/inst
system.cpu.itb.stage2_mmu.stage2_tlb.walker.requestOrigin::total            0                       # Table walker requests started/completed, data/inst
system.cpu.itb.stage2_mmu.stage2_tlb.walker.power_state.pwrStateResidencyTicks::UNDEFINED  90984727500                       # Cumulative time (in ticks) in various power states
system.cpu.itb.walker.walks                         0                       # Table walker walks requested
system.cpu.itb.walker.requestOrigin_Requested::Data            0                       # Table walker requests started/completed, data/inst
system.cpu.itb.walker.requestOrigin_Requested::Inst            0                       # Table walker requests started/completed, data/inst
system.cpu.itb.walker.requestOrigin_Requested::total            0                       # Table walker requests started/completed, data/inst
system.cpu.itb.walker.requestOrigin_Completed::Data            0                       # Table walker requests started/completed, data/inst
system.cpu.itb.walker.requestOrigin_Completed::Inst            0                       # Table walker requests started/completed, data/inst
system.cpu.itb.walker.requestOrigin_Completed::total            0                       # Table walker requests started/completed, data/inst
system.cpu.itb.walker.requestOrigin::total            0                       # Table walker requests started/completed, data/inst
system.cpu.itb.walker.power_state.pwrStateResidencyTicks::UNDEFINED  90984727500                       # Cumulative time (in ticks) in various power states
system.cpu.power_state.pwrStateResidencyTicks::ON  90984727500                       # Cumulative time (in ticks) in various power states
system.cpu.thread0.numInsts                 100000001                       # Number of Instructions committed
system.cpu.thread0.numOps                   100196356                       # Number of Ops committed
system.cpu.thread0.numMemRefs                       0                       # Number of Memory References
system.cpu_clk_domain.clock                       500                       # Clock period in ticks
system.cpu_voltage_domain.voltage                   1                       # Voltage in Volts
system.l2.demand_hits::.cpu.inst                   42                       # number of demand (read+write) hits
system.l2.demand_hits::.cpu.data               700544                       # number of demand (read+write) hits
system.l2.demand_hits::total                   700586                       # number of demand (read+write) hits
system.l2.overall_hits::.cpu.inst                  42                       # number of overall hits
system.l2.overall_hits::.cpu.data              700544                       # number of overall hits
system.l2.overall_hits::total                  700586                       # number of overall hits
system.l2.demand_misses::.cpu.inst                660                       # number of demand (read+write) misses
system.l2.demand_misses::.cpu.data             286821                       # number of demand (read+write) misses
system.l2.demand_misses::total                 287481                       # number of demand (read+write) misses
system.l2.overall_misses::.cpu.inst               660                       # number of overall misses
system.l2.overall_misses::.cpu.data            286821                       # number of overall misses
system.l2.overall_misses::total                287481                       # number of overall misses
system.l2.demand_miss_latency::.cpu.inst     50978500                       # number of demand (read+write) miss cycles
system.l2.demand_miss_latency::.cpu.data  25113290000                       # number of demand (read+write) miss cycles
system.l2.demand_miss_latency::total      25164268500                       # number of demand (read+write) miss cycles
system.l2.overall_miss_latency::.cpu.inst     50978500                       # number of overall miss cycles
system.l2.overall_miss_latency::.cpu.data  25113290000                       # number of overall miss cycles
system.l2.overall_miss_latency::total     25164268500                       # number of overall miss cycles
system.l2.demand_accesses::.cpu.inst              702                       # number of demand (read+write) accesses
system.l2.demand_accesses::.cpu.data           987365                       # number of demand (read+write) accesses
system.l2.demand_accesses::total               988067                       # number of demand (read+write) accesses
system.l2.overall_accesses::.cpu.inst             702                       # number of overall (read+write) accesses
system.l2.overall_accesses::.cpu.data          987365                       # number of overall (read+write) accesses
system.l2.overall_accesses::total              988067                       # number of overall (read+write) accesses
system.l2.demand_miss_rate::.cpu.inst        0.940171                       # miss rate for demand accesses
system.l2.demand_miss_rate::.cpu.data        0.290491                       # miss rate for demand accesses
system.l2.demand_miss_rate::total            0.290953                       # miss rate for demand accesses
system.l2.overall_miss_rate::.cpu.inst       0.940171                       # miss rate for overall accesses
system.l2.overall_miss_rate::.cpu.data       0.290491                       # miss rate for overall accesses
system.l2.overall_miss_rate::total           0.290953                       # miss rate for overall accesses
system.l2.demand_avg_miss_latency::.cpu.inst 77240.151515                       # average overall miss latency
system.l2.demand_avg_miss_latency::.cpu.data 87557.361560                       # average overall miss latency
system.l2.demand_avg_miss_latency::total 87533.675269                       # average overall miss latency
system.l2.overall_avg_miss_latency::.cpu.inst 77240.151515                       # average overall miss latency
system.l2.overall_avg_miss_latency::.cpu.data 87557.361560                       # average overall miss latency
system.l2.overall_avg_miss_latency::total 87533.675269                       # average overall miss latency
system.l2.blocked_cycles::no_mshrs                  0                       # number of cycles access was blocked
system.l2.blocked_cycles::no_targets                0                       # number of cycles access was blocked
system.l2.blocked::no_mshrs                         0                       # number of cycles access was blocked
system.l2.blocked::no_targets                       0                       # number of cycles access was blocked
system.l2.avg_blocked_cycles::no_mshrs            nan                       # average number of cycles each access was blocked
system.l2.avg_blocked_cycles::no_targets          nan                       # average number of cycles each access was blocked
system.l2.writebacks::.writebacks              199882                       # number of writebacks
system.l2.writebacks::total                    199882                       # number of writebacks
system.l2.demand_mshr_hits::.cpu.data               6                       # number of demand (read+write) MSHR hits
system.l2.demand_mshr_hits::total                   6                       # number of demand (read+write) MSHR hits
system.l2.overall_mshr_hits::.cpu.data              6                       # number of overall MSHR hits
system.l2.overall_mshr_hits::total                  6                       # number of overall MSHR hits
system.l2.demand_mshr_misses::.cpu.inst           660                       # number of demand (read+write) MSHR misses
system.l2.demand_mshr_misses::.cpu.data        286815                       # number of demand (read+write) MSHR misses
system.l2.demand_mshr_misses::total            287475                       # number of demand (read+write) MSHR misses
system.l2.overall_mshr_misses::.cpu.inst          660                       # number of overall MSHR misses
system.l2.overall_mshr_misses::.cpu.data       286815                       # number of overall MSHR misses
system.l2.overall_mshr_misses::total           287475                       # number of overall MSHR misses
system.l2.demand_mshr_miss_latency::.cpu.inst     44378500                       # number of demand (read+write) MSHR miss cycles
system.l2.demand_mshr_miss_latency::.cpu.data  22244763000                       # number of demand (read+write) MSHR miss cycles
system.l2.demand_mshr_miss_latency::total  22289141500                       # number of demand (read+write) MSHR miss cycles
system.l2.overall_mshr_miss_latency::.cpu.inst     44378500                       # number of overall MSHR miss cycles
system.l2.overall_mshr_miss_latency::.cpu.data  22244763000                       # number of overall MSHR miss cycles
system.l2.overall_mshr_miss_latency::total  22289141500                       # number of overall MSHR miss cycles
system.l2.demand_mshr_miss_rate::.cpu.inst     0.940171                       # mshr miss rate for demand accesses
system.l2.demand_mshr_miss_rate::.cpu.data     0.290485                       # mshr miss rate for demand accesses
system.l2.demand_mshr_miss_rate::total       0.290947                       # mshr miss rate for demand accesses
system.l2.overall_mshr_miss_rate::.cpu.inst     0.940171                       # mshr miss rate for overall accesses
system.l2.overall_mshr_miss_rate::.cpu.data     0.290485                       # mshr miss rate for overall accesses
system.l2.overall_mshr_miss_rate::total      0.290947                       # mshr miss rate for overall accesses
system.l2.demand_avg_mshr_miss_latency::.cpu.inst 67240.151515                       # average overall mshr miss latency
system.l2.demand_avg_mshr_miss_latency::.cpu.data 77557.878772                       # average overall mshr miss latency
system.l2.demand_avg_mshr_miss_latency::total 77534.190799                       # average overall mshr miss latency
system.l2.overall_avg_mshr_miss_latency::.cpu.inst 67240.151515                       # average overall mshr miss latency
system.l2.overall_avg_mshr_miss_latency::.cpu.data 77557.878772                       # average overall mshr miss latency
system.l2.overall_avg_mshr_miss_latency::total 77534.190799                       # average overall mshr miss latency
system.l2.replacements                         282095                       # number of replacements
system.l2.WritebackDirty_hits::.writebacks       877925                       # number of WritebackDirty hits
system.l2.WritebackDirty_hits::total           877925                       # number of WritebackDirty hits
system.l2.WritebackDirty_accesses::.writebacks       877925                       # number of WritebackDirty accesses(hits+misses)
system.l2.WritebackDirty_accesses::total       877925                       # number of WritebackDirty accesses(hits+misses)
system.l2.WritebackClean_hits::.writebacks           98                       # number of WritebackClean hits
system.l2.WritebackClean_hits::total               98                       # number of WritebackClean hits
system.l2.WritebackClean_accesses::.writebacks           98                       # number of WritebackClean accesses(hits+misses)
system.l2.WritebackClean_accesses::total           98                       # number of WritebackClean accesses(hits+misses)
system.l2.CleanEvict_mshr_misses::.writebacks          289                       # number of CleanEvict MSHR misses
system.l2.CleanEvict_mshr_misses::total           289                       # number of CleanEvict MSHR misses
system.l2.CleanEvict_mshr_miss_rate::.writebacks          inf                       # mshr miss rate for CleanEvict accesses
system.l2.CleanEvict_mshr_miss_rate::total          inf                       # mshr miss rate for CleanEvict accesses
system.l2.ReadExReq_hits::.cpu.data            207184                       # number of ReadExReq hits
system.l2.ReadExReq_hits::total                207184                       # number of ReadExReq hits
system.l2.ReadExReq_misses::.cpu.data          176908                       # number of ReadExReq misses
system.l2.ReadExReq_misses::total              176908                       # number of ReadExReq misses
system.l2.ReadExReq_miss_latency::.cpu.data  15902317500                       # number of ReadExReq miss cycles
system.l2.ReadExReq_miss_latency::total   15902317500                       # number of ReadExReq miss cycles
system.l2.ReadExReq_accesses::.cpu.data        384092                       # number of ReadExReq accesses(hits+misses)
system.l2.ReadExReq_accesses::total            384092                       # number of ReadExReq accesses(hits+misses)
system.l2.ReadExReq_miss_rate::.cpu.data     0.460588                       # miss rate for ReadExReq accesses
system.l2.ReadExReq_miss_rate::total         0.460588                       # miss rate for ReadExReq accesses
system.l2.ReadExReq_avg_miss_latency::.cpu.data 89890.324349                       # average ReadExReq miss latency
system.l2.ReadExReq_avg_miss_latency::total 89890.324349                       # average ReadExReq miss latency
system.l2.ReadExReq_mshr_misses::.cpu.data       176908                       # number of ReadExReq MSHR misses
system.l2.ReadExReq_mshr_misses::total         176908                       # number of ReadExReq MSHR misses
system.l2.ReadExReq_mshr_miss_latency::.cpu.data  14133237500                       # number of ReadExReq MSHR miss cycles
system.l2.ReadExReq_mshr_miss_latency::total  14133237500                       # number of ReadExReq MSHR miss cycles
system.l2.ReadExReq_mshr_miss_rate::.cpu.data     0.460588                       # mshr miss rate for ReadExReq accesses
system.l2.ReadExReq_mshr_miss_rate::total     0.460588                       # mshr miss rate for ReadExReq accesses
system.l2.ReadExReq_avg_mshr_miss_latency::.cpu.data 79890.324349                       # average ReadExReq mshr miss latency
system.l2.ReadExReq_avg_mshr_miss_latency::total 79890.324349                       # average ReadExReq mshr miss latency
system.l2.ReadCleanReq_hits::.cpu.inst             42                       # number of ReadCleanReq hits
system.l2.ReadCleanReq_hits::total                 42                       # number of ReadCleanReq hits
system.l2.ReadCleanReq_misses::.cpu.inst          660                       # number of ReadCleanReq misses
system.l2.ReadCleanReq_misses::total              660                       # number of ReadCleanReq misses
system.l2.ReadCleanReq_miss_latency::.cpu.inst     50978500                       # number of ReadCleanReq miss cycles
system.l2.ReadCleanReq_miss_latency::total     50978500                       # number of ReadCleanReq miss cycles
system.l2.ReadCleanReq_accesses::.cpu.inst          702                       # number of ReadCleanReq accesses(hits+misses)
system.l2.ReadCleanReq_accesses::total            702                       # number of ReadCleanReq accesses(hits+misses)
system.l2.ReadCleanReq_miss_rate::.cpu.inst     0.940171                       # miss rate for ReadCleanReq accesses
system.l2.ReadCleanReq_miss_rate::total      0.940171                       # miss rate for ReadCleanReq accesses
system.l2.ReadCleanReq_avg_miss_latency::.cpu.inst 77240.151515                       # average ReadCleanReq miss latency
system.l2.ReadCleanReq_avg_miss_latency::total 77240.151515                       # average ReadCleanReq miss latency
system.l2.ReadCleanReq_mshr_misses::.cpu.inst          660                       # number of ReadCleanReq MSHR misses
system.l2.ReadCleanReq_mshr_misses::total          660                       # number of ReadCleanReq MSHR misses
system.l2.ReadCleanReq_mshr_miss_latency::.cpu.inst     44378500                       # number of ReadCleanReq MSHR miss cycles
system.l2.ReadCleanReq_mshr_miss_latency::total     44378500                       # number of ReadCleanReq MSHR miss cycles
system.l2.ReadCleanReq_mshr_miss_rate::.cpu.inst     0.940171                       # mshr miss rate for ReadCleanReq accesses
system.l2.ReadCleanReq_mshr_miss_rate::total     0.940171                       # mshr miss rate for ReadCleanReq accesses
system.l2.ReadCleanReq_avg_mshr_miss_latency::.cpu.inst 67240.151515                       # average ReadCleanReq mshr miss latency
system.l2.ReadCleanReq_avg_mshr_miss_latency::total 67240.151515                       # average ReadCleanReq mshr miss latency
system.l2.ReadSharedReq_hits::.cpu.data        493360                       # number of ReadSharedReq hits
system.l2.ReadSharedReq_hits::total            493360                       # number of ReadSharedReq hits
system.l2.ReadSharedReq_misses::.cpu.data       109913                       # number of ReadSharedReq misses
system.l2.ReadSharedReq_misses::total          109913                       # number of ReadSharedReq misses
system.l2.ReadSharedReq_miss_latency::.cpu.data   9210972500                       # number of ReadSharedReq miss cycles
system.l2.ReadSharedReq_miss_latency::total   9210972500                       # number of ReadSharedReq miss cycles
system.l2.ReadSharedReq_accesses::.cpu.data       603273                       # number of ReadSharedReq accesses(hits+misses)
system.l2.ReadSharedReq_accesses::total        603273                       # number of ReadSharedReq accesses(hits+misses)
system.l2.ReadSharedReq_miss_rate::.cpu.data     0.182194                       # miss rate for ReadSharedReq accesses
system.l2.ReadSharedReq_miss_rate::total     0.182194                       # miss rate for ReadSharedReq accesses
system.l2.ReadSharedReq_avg_miss_latency::.cpu.data 83802.393711                       # average ReadSharedReq miss latency
system.l2.ReadSharedReq_avg_miss_latency::total 83802.393711                       # average ReadSharedReq miss latency
system.l2.ReadSharedReq_mshr_hits::.cpu.data            6                       # number of ReadSharedReq MSHR hits
system.l2.ReadSharedReq_mshr_hits::total            6                       # number of ReadSharedReq MSHR hits
system.l2.ReadSharedReq_mshr_misses::.cpu.data       109907                       # number of ReadSharedReq MSHR misses
system.l2.ReadSharedReq_mshr_misses::total       109907                       # number of ReadSharedReq MSHR misses
system.l2.ReadSharedReq_mshr_miss_latency::.cpu.data   8111525500                       # number of ReadSharedReq MSHR miss cycles
system.l2.ReadSharedReq_mshr_miss_latency::total   8111525500                       # number of ReadSharedReq MSHR miss cycles
system.l2.ReadSharedReq_mshr_miss_rate::.cpu.data     0.182185                       # mshr miss rate for ReadSharedReq accesses
system.l2.ReadSharedReq_mshr_miss_rate::total     0.182185                       # mshr miss rate for ReadSharedReq accesses
system.l2.ReadSharedReq_avg_mshr_miss_latency::.cpu.data 73803.538446                       # average ReadSharedReq mshr miss latency
system.l2.ReadSharedReq_avg_mshr_miss_latency::total 73803.538446                       # average ReadSharedReq mshr miss latency
system.l2.power_state.pwrStateResidencyTicks::UNDEFINED  90984727500                       # Cumulative time (in ticks) in various power states
system.l2.tags.tagsinuse                  8046.258294                       # Cycle average of tags in use
system.l2.tags.total_refs                     1973436                       # Total number of references to valid blocks.
system.l2.tags.sampled_refs                    290287                       # Sample count of references to valid blocks.
system.l2.tags.avg_refs                      6.798224                       # Average number of references to valid blocks.
system.l2.tags.warmup_cycle                     77000                       # Cycle when the warmup percentage was hit.
system.l2.tags.occ_blocks::.writebacks      64.677477                       # Average occupied blocks per requestor
system.l2.tags.occ_blocks::.cpu.inst        16.650124                       # Average occupied blocks per requestor
system.l2.tags.occ_blocks::.cpu.data      7964.930692                       # Average occupied blocks per requestor
system.l2.tags.occ_percent::.writebacks      0.007895                       # Average percentage of cache occupancy
system.l2.tags.occ_percent::.cpu.inst        0.002032                       # Average percentage of cache occupancy
system.l2.tags.occ_percent::.cpu.data        0.972282                       # Average percentage of cache occupancy
system.l2.tags.occ_percent::total            0.982209                       # Average percentage of cache occupancy
system.l2.tags.occ_task_id_blocks::1024          8192                       # Occupied blocks per task id
system.l2.tags.age_task_id_blocks_1024::0           13                       # Occupied blocks per task id
system.l2.tags.age_task_id_blocks_1024::1          317                       # Occupied blocks per task id
system.l2.tags.age_task_id_blocks_1024::2         3497                       # Occupied blocks per task id
system.l2.tags.age_task_id_blocks_1024::3         4260                       # Occupied blocks per task id
system.l2.tags.age_task_id_blocks_1024::4          105                       # Occupied blocks per task id
system.l2.tags.occ_task_id_percent::1024            1                       # Percentage of cache occupancy per task id
system.l2.tags.tag_accesses                   4237749                       # Number of tag accesses
system.l2.tags.data_accesses                  4237749                       # Number of data accesses
system.l2.tags.power_state.pwrStateResidencyTicks::UNDEFINED  90984727500                       # Cumulative time (in ticks) in various power states
system.mem_ctrls.avgPriority_.writebacks::samples    199852.00                       # Average QoS priority value for accepted requests
system.mem_ctrls.avgPriority_.cpu.inst::samples       660.00                       # Average QoS priority value for accepted requests
system.mem_ctrls.avgPriority_.cpu.data::samples    285839.00                       # Average QoS priority value for accepted requests
system.mem_ctrls.priorityMinLatency      0.000000018750                       # per QoS priority minimum request to response latency (s)
system.mem_ctrls.priorityMaxLatency      0.003170224500                       # per QoS priority maximum request to response latency (s)
system.mem_ctrls.numReadWriteTurnArounds        11844                       # Number of turnarounds from READ to WRITE
system.mem_ctrls.numWriteReadTurnArounds        11844                       # Number of turnarounds from WRITE to READ
system.mem_ctrls.numStayReadState              780814                       # Number of times bus staying in READ state
system.mem_ctrls.numStayWriteState             188268                       # Number of times bus staying in WRITE state
system.mem_ctrls.readReqs                      287475                       # Number of read requests accepted
system.mem_ctrls.writeReqs                     199882                       # Number of write requests accepted
system.mem_ctrls.readBursts                    287475                       # Number of controller read bursts, including those serviced by the write queue
system.mem_ctrls.writeBursts                   199882                       # Number of controller write bursts, including those merged in the write queue
system.mem_ctrls.servicedByWrQ                    976                       # Number of controller read bursts serviced by the write queue
system.mem_ctrls.mergedWrBursts                    30                       # Number of controller write bursts merged with an existing one
system.mem_ctrls.neitherReadNorWriteReqs            0                       # Number of requests that are neither read nor write
system.mem_ctrls.avgRdQLen                       1.10                       # Average read queue length when enqueuing
system.mem_ctrls.avgWrQLen                      24.82                       # Average write queue length when enqueuing
system.mem_ctrls.numRdRetry                         0                       # Number of times read queue was full causing retry
system.mem_ctrls.numWrRetry                         0                       # Number of times write queue was full causing retry
system.mem_ctrls.readPktSize::0                     0                       # Read request sizes (log2)
system.mem_ctrls.readPktSize::1                     0                       # Read request sizes (log2)
system.mem_ctrls.readPktSize::2                     0                       # Read request sizes (log2)
system.mem_ctrls.readPktSize::3                     0                       # Read request sizes (log2)
system.mem_ctrls.readPktSize::4                     0                       # Read request sizes (log2)
system.mem_ctrls.readPktSize::5                     0                       # Read request sizes (log2)
system.mem_ctrls.readPktSize::6                287475                       # Read request sizes (log2)
system.mem_ctrls.writePktSize::0                    0                       # Write request sizes (log2)
system.mem_ctrls.writePktSize::1                    0                       # Write request sizes (log2)
system.mem_ctrls.writePktSize::2                    0                       # Write request sizes (log2)
system.mem_ctrls.writePktSize::3                    0                       # Write request sizes (log2)
system.mem_ctrls.writePktSize::4                    0                       # Write request sizes (log2)
system.mem_ctrls.writePktSize::5                    0                       # Write request sizes (log2)
system.mem_ctrls.writePktSize::6               199882                       # Write request sizes (log2)
system.mem_ctrls.rdQLenPdf::0                  214884                       # What read queue length does an incoming req see
system.mem_ctrls.rdQLenPdf::1                   68835                       # What read queue length does an incoming req see
system.mem_ctrls.rdQLenPdf::2                    2377                       # What read queue length does an incoming req see
system.mem_ctrls.rdQLenPdf::3                     402                       # What read queue length does an incoming req see
system.mem_ctrls.rdQLenPdf::4                       1                       # What read queue length does an incoming req see
system.mem_ctrls.rdQLenPdf::5                       0                       # What read queue length does an incoming req see
system.mem_ctrls.rdQLenPdf::6                       0                       # What read queue length does an incoming req see
system.mem_ctrls.rdQLenPdf::7                       0                       # What read queue length does an incoming req see
system.mem_ctrls.rdQLenPdf::8                       0                       # What read queue length does an incoming req see
[...]
system.mem_ctrls.dram.bw_write::.writebacks    140599948                       # Write bandwidth from this memory (bytes/s)
system.mem_ctrls.dram.bw_write::total       140599948                       # Write bandwidth from this memory (bytes/s)
system.mem_ctrls.dram.bw_total::.writebacks    140599948                       # Total bandwidth to/from this memory (bytes/s)
system.mem_ctrls.dram.bw_total::.cpu.inst       464254                       # Total bandwidth to/from this memory (bytes/s)
system.mem_ctrls.dram.bw_total::.cpu.data    201749904                       # Total bandwidth to/from this memory (bytes/s)
system.mem_ctrls.dram.bw_total::total       342814106                       # Total bandwidth to/from this memory (bytes/s)
system.mem_ctrls.dram.readBursts               286499                       # Number of DRAM read bursts
system.mem_ctrls.dram.writeBursts              199834                       # Number of DRAM write bursts
system.mem_ctrls.dram.perBankRdBursts::0        17418                       # Per bank write bursts
system.mem_ctrls.dram.perBankRdBursts::1        17622                       # Per bank write bursts
system.mem_ctrls.dram.perBankRdBursts::2        17348                       # Per bank write bursts
system.mem_ctrls.dram.perBankRdBursts::3        17187                       # Per bank write bursts
system.mem_ctrls.dram.perBankRdBursts::4        18339                       # Per bank write bursts
system.mem_ctrls.dram.perBankRdBursts::5        17181                       # Per bank write bursts
system.mem_ctrls.dram.perBankRdBursts::6        18165                       # Per bank write bursts
system.mem_ctrls.dram.perBankRdBursts::7        18890                       # Per bank write bursts
system.mem_ctrls.dram.perBankRdBursts::8        19154                       # Per bank write bursts
system.mem_ctrls.dram.perBankRdBursts::9        17692                       # Per bank write bursts
system.mem_ctrls.dram.perBankRdBursts::10        16494                       # Per bank write bursts
system.mem_ctrls.dram.perBankRdBursts::11        18959                       # Per bank write bursts
system.mem_ctrls.dram.perBankRdBursts::12        17450                       # Per bank write bursts
system.mem_ctrls.dram.perBankRdBursts::13        18357                       # Per bank write bursts
system.mem_ctrls.dram.perBankRdBursts::14        18195                       # Per bank write bursts
system.mem_ctrls.dram.perBankRdBursts::15        18048                       # Per bank write bursts
system.mem_ctrls.dram.perBankWrBursts::0        11800                       # Per bank write bursts
system.mem_ctrls.dram.perBankWrBursts::1        12064                       # Per bank write bursts
system.mem_ctrls.dram.perBankWrBursts::2        11834                       # Per bank write bursts
system.mem_ctrls.dram.perBankWrBursts::3        11724                       # Per bank write bursts
system.mem_ctrls.dram.perBankWrBursts::4        12782                       # Per bank write bursts
system.mem_ctrls.dram.perBankWrBursts::5        12005                       # Per bank write bursts
system.mem_ctrls.dram.perBankWrBursts::6        12847                       # Per bank write bursts
system.mem_ctrls.dram.perBankWrBursts::7        13586                       # Per bank write bursts
system.mem_ctrls.dram.perBankWrBursts::8        13882                       # Per bank write bursts
system.mem_ctrls.dram.perBankWrBursts::9        12621                       # Per bank write bursts
system.mem_ctrls.dram.perBankWrBursts::10        11176                       # Per bank write bursts
system.mem_ctrls.dram.perBankWrBursts::11        13619                       # Per bank write bursts
system.mem_ctrls.dram.perBankWrBursts::12        11872                       # Per bank write bursts
system.mem_ctrls.dram.perBankWrBursts::13        12798                       # Per bank write bursts
system.mem_ctrls.dram.perBankWrBursts::14        12637                       # Per bank write bursts
system.mem_ctrls.dram.perBankWrBursts::15        12587                       # Per bank write bursts
system.mem_ctrls.dram.totQLat              5072688250                       # Total ticks spent queuing
system.mem_ctrls.dram.totBusLat            1432495000                       # Total ticks spent in databus transfers
system.mem_ctrls.dram.totMemAccLat        10444544500                       # Total ticks spent from burst creation until serviced by the DRAM
system.mem_ctrls.dram.avgQLat                17705.78                       # Average queueing delay per DRAM burst
system.mem_ctrls.dram.avgBusLat               5000.00                       # Average bus latency per DRAM burst
system.mem_ctrls.dram.avgMemAccLat           36455.78                       # Average memory access latency per DRAM burst
system.mem_ctrls.dram.readRowHits              153502                       # Number of row buffer hits during reads
system.mem_ctrls.dram.writeRowHits             102857                       # Number of row buffer hits during writes
system.mem_ctrls.dram.readRowHitRate            53.58                       # Row buffer hit rate for reads
system.mem_ctrls.dram.writeRowHitRate           51.47                       # Row buffer hit rate for writes
system.mem_ctrls.dram.bytesPerActivate::samples       229974                       # Bytes accessed per row activation
system.mem_ctrls.dram.bytesPerActivate::mean   135.342743                       # Bytes accessed per row activation
system.mem_ctrls.dram.bytesPerActivate::gmean    90.248520                       # Bytes accessed per row activation
system.mem_ctrls.dram.bytesPerActivate::stdev   194.454667                       # Bytes accessed per row activation
system.mem_ctrls.dram.bytesPerActivate::0-127       172916     75.19%     75.19% # Bytes accessed per row activation
system.mem_ctrls.dram.bytesPerActivate::128-255        31743     13.80%     88.99% # Bytes accessed per row activation
system.mem_ctrls.dram.bytesPerActivate::256-383         4498      1.96%     90.95% # Bytes accessed per row activation
system.mem_ctrls.dram.bytesPerActivate::384-511         2094      0.91%     91.86% # Bytes accessed per row activation
system.mem_ctrls.dram.bytesPerActivate::512-639        10223      4.45%     96.30% # Bytes accessed per row activation
system.mem_ctrls.dram.bytesPerActivate::640-767          720      0.31%     96.62% # Bytes accessed per row activation
system.mem_ctrls.dram.bytesPerActivate::768-895          599      0.26%     96.88% # Bytes accessed per row activation
system.mem_ctrls.dram.bytesPerActivate::896-1023          575      0.25%     97.13% # Bytes accessed per row activation
system.mem_ctrls.dram.bytesPerActivate::1024-1151         6606      2.87%    100.00% # Bytes accessed per row activation
system.mem_ctrls.dram.bytesPerActivate::total       229974                       # Bytes accessed per row activation
system.mem_ctrls.dram.bytesRead              18335936                       # Total number of bytes read from DRAM
system.mem_ctrls.dram.bytesWritten           12789376                       # Total number of bytes written to DRAM
system.mem_ctrls.dram.avgRdBW              201.527625                       # Average DRAM read bandwidth in MiBytes/s
system.mem_ctrls.dram.avgWrBW              140.566185                       # Average DRAM write bandwidth in MiBytes/s
system.mem_ctrls.dram.peakBW                 12800.00                       # Theoretical peak bandwidth in MiByte/s
system.mem_ctrls.dram.busUtil                    2.67                       # Data bus utilization in percentage
system.mem_ctrls.dram.busUtilRead                1.57                       # Data bus utilization in percentage for reads
system.mem_ctrls.dram.busUtilWrite               1.10                       # Data bus utilization in percentage for writes
system.mem_ctrls.dram.pageHitRate               52.71                       # Row buffer hit rate, read and write combined
system.mem_ctrls.dram.power_state.pwrStateResidencyTicks::UNDEFINED  90984727500                       # Cumulative time (in ticks) in various power states
system.mem_ctrls.dram.rank0.actEnergy       804970740                       # Energy for activate commands per rank (pJ)
system.mem_ctrls.dram.rank0.preEnergy       427852095                       # Energy for precharge commands per rank (pJ)
system.mem_ctrls.dram.rank0.readEnergy     1014951000                       # Energy for read commands per rank (pJ)
system.mem_ctrls.dram.rank0.writeEnergy     514911240                       # Energy for write commands per rank (pJ)
system.mem_ctrls.dram.rank0.refreshEnergy 7182068400.000001                       # Energy for refresh commands per rank (pJ)
system.mem_ctrls.dram.rank0.actBackEnergy  27463225290                       # Energy for active background per rank (pJ)
system.mem_ctrls.dram.rank0.preBackEnergy  11811208800                       # Energy for precharge background per rank (pJ)
system.mem_ctrls.dram.rank0.actPowerDownEnergy            0                       # Energy for active power-down per rank (pJ)
system.mem_ctrls.dram.rank0.prePowerDownEnergy            0                       # Energy for precharge power-down per rank (pJ)
system.mem_ctrls.dram.rank0.selfRefreshEnergy            0                       # Energy for self refresh per rank (pJ)
system.mem_ctrls.dram.rank0.totalEnergy   49219187565                       # Total energy per rank (pJ)
system.mem_ctrls.dram.rank0.averagePower   540.960982                       # Core power per rank (mW)
system.mem_ctrls.dram.rank0.totalIdleTime            0                       # Total Idle time Per DRAM Rank
system.mem_ctrls.dram.rank0.pwrStateTime::IDLE  30422983000                       # Time in different power states
system.mem_ctrls.dram.rank0.pwrStateTime::REF   3038100000                       # Time in different power states
system.mem_ctrls.dram.rank0.pwrStateTime::SREF            0                       # Time in different power states
system.mem_ctrls.dram.rank0.pwrStateTime::PRE_PDN            0                       # Time in different power states
system.mem_ctrls.dram.rank0.pwrStateTime::ACT  57523644500                       # Time in different power states
system.mem_ctrls.dram.rank0.pwrStateTime::ACT_PDN            0                       # Time in different power states
system.mem_ctrls.dram.rank1.actEnergy       837043620                       # Energy for activate commands per rank (pJ)
system.mem_ctrls.dram.rank1.preEnergy       444899235                       # Energy for precharge commands per rank (pJ)
system.mem_ctrls.dram.rank1.readEnergy     1030651860                       # Energy for read commands per rank (pJ)
system.mem_ctrls.dram.rank1.writeEnergy     528222240                       # Energy for write commands per rank (pJ)
system.mem_ctrls.dram.rank1.refreshEnergy 7182068400.000001                       # Energy for refresh commands per rank (pJ)
system.mem_ctrls.dram.rank1.actBackEnergy  26960774850                       # Energy for active background per rank (pJ)
system.mem_ctrls.dram.rank1.preBackEnergy  12234324960                       # Energy for precharge background per rank (pJ)
system.mem_ctrls.dram.rank1.actPowerDownEnergy            0                       # Energy for active power-down per rank (pJ)
system.mem_ctrls.dram.rank1.prePowerDownEnergy            0                       # Energy for precharge power-down per rank (pJ)
system.mem_ctrls.dram.rank1.selfRefreshEnergy            0                       # Energy for self refresh per rank (pJ)
system.mem_ctrls.dram.rank1.totalEnergy   49217985165                       # Total energy per rank (pJ)
system.mem_ctrls.dram.rank1.averagePower   540.947767                       # Core power per rank (mW)
system.mem_ctrls.dram.rank1.totalIdleTime            0                       # Total Idle time Per DRAM Rank
system.mem_ctrls.dram.rank1.pwrStateTime::IDLE  31526566750                       # Time in different power states
system.mem_ctrls.dram.rank1.pwrStateTime::REF   3038100000                       # Time in different power states
system.mem_ctrls.dram.rank1.pwrStateTime::SREF            0                       # Time in different power states
system.mem_ctrls.dram.rank1.pwrStateTime::PRE_PDN            0                       # Time in different power states
system.mem_ctrls.dram.rank1.pwrStateTime::ACT  56420060750                       # Time in different power states
system.mem_ctrls.dram.rank1.pwrStateTime::ACT_PDN            0                       # Time in different power states
system.mem_ctrls.power_state.pwrStateResidencyTicks::UNDEFINED  90984727500                       # Cumulative time (in ticks) in various power states
system.membus.trans_dist::ReadResp             110567                       # Transaction distribution
system.membus.trans_dist::WritebackDirty       199882                       # Transaction distribution
system.membus.trans_dist::CleanEvict            78782                       # Transaction distribution
system.membus.trans_dist::ReadExReq            176908                       # Transaction distribution
system.membus.trans_dist::ReadExResp           176908                       # Transaction distribution
system.membus.trans_dist::ReadSharedReq        110567                       # Transaction distribution
system.membus.pkt_count_system.l2.mem_side_port::system.mem_ctrls.port       853614                       # Packet count per connected requestor and responder (bytes)
system.membus.pkt_count::total                 853614                       # Packet count per connected requestor and responder (bytes)
system.membus.pkt_size_system.l2.mem_side_port::system.mem_ctrls.port     31190848                       # Cumulative packet size per connected requestor and responder (bytes)
system.membus.pkt_size::total                31190848                       # Cumulative packet size per connected requestor and responder (bytes)
system.membus.snoops                                0                       # Total snoops (count)
system.membus.snoopTraffic                          0                       # Total snoop traffic (bytes)
system.membus.snoop_fanout::samples            287475                       # Request fanout histogram
system.membus.snoop_fanout::mean                    0                       # Request fanout histogram
system.membus.snoop_fanout::stdev                   0                       # Request fanout histogram
system.membus.snoop_fanout::underflows              0      0.00%      0.00% # Request fanout histogram
system.membus.snoop_fanout::0                  287475    100.00%    100.00% # Request fanout histogram
system.membus.snoop_fanout::1                       0      0.00%    100.00% # Request fanout histogram
system.membus.snoop_fanout::overflows               0      0.00%    100.00% # Request fanout histogram
system.membus.snoop_fanout::min_value               0                       # Request fanout histogram
system.membus.snoop_fanout::max_value               0                       # Request fanout histogram
system.membus.snoop_fanout::total              287475                       # Request fanout histogram
system.membus.power_state.pwrStateResidencyTicks::UNDEFINED  90984727500                       # Cumulative time (in ticks) in various power states
system.membus.reqLayer0.occupancy          1420855500                       # Layer occupancy (ticks)
system.membus.reqLayer0.utilization               1.6                       # Layer utilization (%)
system.membus.respLayer1.occupancy         1561685750                       # Layer occupancy (ticks)
system.membus.respLayer1.utilization              1.7                       # Layer utilization (%)
system.tol2bus.trans_dist::ReadResp            603975                       # Transaction distribution
system.tol2bus.trans_dist::WritebackDirty      1077807                       # Transaction distribution
system.tol2bus.trans_dist::WritebackClean          106                       # Transaction distribution
system.tol2bus.trans_dist::CleanEvict          191141                       # Transaction distribution
system.tol2bus.trans_dist::ReadExReq           384092                       # Transaction distribution
system.tol2bus.trans_dist::ReadExResp          384092                       # Transaction distribution
system.tol2bus.trans_dist::ReadCleanReq           702                       # Transaction distribution
system.tol2bus.trans_dist::ReadSharedReq       603273                       # Transaction distribution
system.tol2bus.pkt_count_system.cpu.icache.mem_side_port::system.l2.cpu_side_port         1510                       # Packet count per connected requestor and responder (bytes)
system.tol2bus.pkt_count_system.cpu.dcache.mem_side_port::system.l2.cpu_side_port      2961583                       # Packet count per connected requestor and responder (bytes)
system.tol2bus.pkt_count::total               2963093                       # Packet count per connected requestor and responder (bytes)
system.tol2bus.pkt_size_system.cpu.icache.mem_side_port::system.l2.cpu_side_port        51712                       # Cumulative packet size per connected requestor and responder (bytes)
system.tol2bus.pkt_size_system.cpu.dcache.mem_side_port::system.l2.cpu_side_port    119378560                       # Cumulative packet size per connected requestor and responder (bytes)
system.tol2bus.pkt_size::total              119430272                       # Cumulative packet size per connected requestor and responder (bytes)
system.tol2bus.snoops                          282095                       # Total snoops (count)
system.tol2bus.snoopTraffic                  12792448                       # Total snoop traffic (bytes)
system.tol2bus.snoop_fanout::samples          1270162                       # Request fanout histogram
system.tol2bus.snoop_fanout::mean            0.003961                       # Request fanout histogram
system.tol2bus.snoop_fanout::stdev           0.062999                       # Request fanout histogram
system.tol2bus.snoop_fanout::underflows             0      0.00%      0.00% # Request fanout histogram
system.tol2bus.snoop_fanout::0                1265146     99.61%     99.61% # Request fanout histogram
system.tol2bus.snoop_fanout::1                   5001      0.39%    100.00% # Request fanout histogram
system.tol2bus.snoop_fanout::2                     15      0.00%    100.00% # Request fanout histogram
system.tol2bus.snoop_fanout::overflows              0      0.00%    100.00% # Request fanout histogram
system.tol2bus.snoop_fanout::min_value              0                       # Request fanout histogram
system.tol2bus.snoop_fanout::max_value              2                       # Request fanout histogram
system.tol2bus.snoop_fanout::total            1270162                       # Request fanout histogram
system.tol2bus.power_state.pwrStateResidencyTicks::UNDEFINED  90984727500                       # Cumulative time (in ticks) in various power states
system.tol2bus.reqLayer0.occupancy         1865544000                       # Layer occupancy (ticks)
system.tol2bus.reqLayer0.utilization              2.1                       # Layer utilization (%)
system.tol2bus.respLayer0.occupancy           1053000                       # Layer occupancy (ticks)
system.tol2bus.respLayer0.utilization             0.0                       # Layer utilization (%)
system.tol2bus.respLayer1.occupancy        1481050494                       # Layer occupancy (ticks)
system.tol2bus.respLayer1.utilization             1.6                       # Layer utilization (%)
system.voltage_domain.voltage                       1                       # Voltage in Volts

---------- End Simulation Statistics   ----------
