
---------- Begin Simulation Statistics ----------
final_tick                               719686330000                       # Number of ticks from beginning of simulation (restored from checkpoints and never reset)
host_inst_rate                                 103179                       # Simulator instruction rate (inst/s)
host_mem_usage                                 655252                       # Number of bytes of host memory used
host_op_rate                                   190075                       # Simulator op (including micro ops) rate (op/s)
host_seconds                                   969.19                       # Real time elapsed on the host
host_tick_rate                              742563532                       # Simulator tick rate (ticks/s)
sim_freq                                 1000000000000                       # Frequency of simulated ticks
sim_insts                                   100000001                       # Number of instructions simulated
sim_ops                                     184218784                       # Number of ops (including micro ops) simulated
sim_seconds                                  0.719686                       # Number of seconds simulated
sim_ticks                                719686330000                       # Number of ticks simulated
system.cpu.committedInsts                   100000001                       # Number of instructions committed
system.cpu.committedOps                     184218784                       # Number of ops (including micro ops) committed
system.cpu.cpi                               7.196863                       # CPI: cycles per instruction
system.cpu.discardedOps                          4408                       # Number of ops (including micro ops) which were discarded before commit
system.cpu.idleCycles                       498000842                       # Total number of cycles that the object has spent stopped
system.cpu.ipc                               0.138949                       # IPC: instructions per cycle
system.cpu.numCycles                        719686330                       # number of cpu cycles simulated
system.cpu.numFetchSuspends                         0                       # Number of times Execute suspended instruction fetching
system.cpu.numWorkItemsCompleted                    0                       # number of work items this cpu completed
system.cpu.numWorkItemsStarted                      0                       # number of work items this cpu started
system.cpu.op_class_0::No_OpClass                   0      0.00%      0.00% # Class of committed instruction
system.cpu.op_class_0::IntAlu                97640468     53.00%     53.00% # Class of committed instruction
system.cpu.op_class_0::IntMult                 114702      0.06%     53.06% # Class of committed instruction
system.cpu.op_class_0::IntDiv                       0      0.00%     53.06% # Class of committed instruction
system.cpu.op_class_0::FloatAdd                     0      0.00%     53.06% # Class of committed instruction
system.cpu.op_class_0::FloatCmp                     0      0.00%     53.06% # Class of committed instruction
system.cpu.op_class_0::FloatCvt                     0      0.00%     53.06% # Class of committed instruction
system.cpu.op_class_0::FloatMult                    0      0.00%     53.06% # Class of committed instruction
system.cpu.op_class_0::FloatMultAcc                 0      0.00%     53.06% # Class of committed instruction
system.cpu.op_class_0::FloatDiv                     0      0.00%     53.06% # Class of committed instruction
system.cpu.op_class_0::FloatMisc                    0      0.00%     53.06% # Class of committed instruction
system.cpu.op_class_0::FloatSqrt                    0      0.00%     53.06% # Class of committed instruction
system.cpu.op_class_0::SimdAdd                      8      0.00%     53.06% # Class of committed instruction
system.cpu.op_class_0::SimdAddAcc                   0      0.00%     53.06% # Class of committed instruction
system.cpu.op_class_0::SimdAlu                     10      0.00%     53.06% # Class of committed instruction
system.cpu.op_class_0::SimdCmp                      8      0.00%     53.06% # Class of committed instruction
system.cpu.op_class_0::SimdCvt                      0      0.00%     53.06% # Class of committed instruction
system.cpu.op_class_0::SimdMisc                     1      0.00%     53.06% # Class of committed instruction
system.cpu.op_class_0::SimdMult                     0      0.00%     53.06% # Class of committed instruction
system.cpu.op_class_0::SimdMultAcc                  0      0.00%     53.06% # Class of committed instruction
system.cpu.op_class_0::SimdShift                    0      0.00%     53.06% # Class of committed instruction
system.cpu.op_class_0::SimdShiftAcc                 0      0.00%     53.06% # Class of committed instruction
system.cpu.op_class_0::SimdDiv                      0      0.00%     53.06% # Class of committed instruction
system.cpu.op_class_0::SimdSqrt                     0      0.00%     53.06% # Class of committed instruction
system.cpu.op_class_0::SimdFloatAdd                 0      0.00%     53.06% # Class of committed instruction
system.cpu.op_class_0::SimdFloatAlu                 0      0.00%     53.06% # Class of committed instruction
system.cpu.op_class_0::SimdFloatCmp                 0      0.00%     53.06% # Class of committed instruction
system.cpu.op_class_0::SimdFloatCvt                 0      0.00%     53.06% # Class of committed instruction
system.cpu.op_class_0::SimdFloatDiv                 0      0.00%     53.06% # Class of committed instruction
system.cpu.op_class_0::SimdFloatMisc               24      0.00%     53.06% # Class of committed instruction
system.cpu.op_class_0::SimdFloatMult                0      0.00%     53.06% # Class of committed instruction
system.cpu.op_class_0::SimdFloatMultAcc             0      0.00%     53.06% # Class of committed instruction
system.cpu.op_class_0::SimdFloatSqrt                0      0.00%     53.06% # Class of committed instruction
system.cpu.op_class_0::SimdReduceAdd                0      0.00%     53.06% # Class of committed instruction
system.cpu.op_class_0::SimdReduceAlu                0      0.00%     53.06% # Class of committed instruction
system.cpu.op_class_0::SimdReduceCmp                0      0.00%     53.06% # Class of committed instruction
system.cpu.op_class_0::SimdFloatReduceAdd            0      0.00%     53.06% # Class of committed instruction
system.cpu.op_class_0::SimdFloatReduceCmp            0      0.00%     53.06% # Class of committed instruction
system.cpu.op_class_0::SimdAes                      0      0.00%     53.06% # Class of committed instruction
system.cpu.op_class_0::SimdAesMix                   0      0.00%     53.06% # Class of committed instruction
system.cpu.op_class_0::SimdSha1Hash                 0      0.00%     53.06% # Class of committed instruction
system.cpu.op_class_0::SimdSha1Hash2                0      0.00%     53.06% # Class of committed instruction
system.cpu.op_class_0::SimdSha256Hash               0      0.00%     53.06% # Class of committed instruction
system.cpu.op_class_0::SimdSha256Hash2              0      0.00%     53.06% # Class of committed instruction
system.cpu.op_class_0::SimdShaSigma2                0      0.00%     53.06% # Class of committed instruction
system.cpu.op_class_0::SimdShaSigma3                0      0.00%     53.06% # Class of committed instruction
system.cpu.op_class_0::SimdPredAlu                  0      0.00%     53.06% # Class of committed instruction
system.cpu.op_class_0::MemRead                2082677      1.13%     54.20% # Class of committed instruction
system.cpu.op_class_0::MemWrite              84380886     45.80%    100.00% # Class of committed instruction
system.cpu.op_class_0::FloatMemRead                 0      0.00%    100.00% # Class of committed instruction
system.cpu.op_class_0::FloatMemWrite                0      0.00%    100.00% # Class of committed instruction
system.cpu.op_class_0::IprAccess                    0      0.00%    100.00% # Class of committed instruction
system.cpu.op_class_0::InstPrefetch                 0      0.00%    100.00% # Class of committed instruction
system.cpu.op_class_0::total                184218784                       # Class of committed instruction
system.cpu.tickCycles                       221685488                       # Number of cycles that the object actually ticked
system.cpu.workload.numSyscalls                    19                       # Number of system calls
system.membus.snoop_filter.hit_multi_requests            0                       # Number of requests hitting in the snoop filter with multiple (>1) holders of the requested data.
system.membus.snoop_filter.hit_multi_snoops            0                       # Number of snoops hitting in the snoop filter with multiple (>1) holders of the requested data.
system.membus.snoop_filter.hit_single_requests      5259232                       # Number of requests hitting in the snoop filter with a single holder of the requested data.
system.membus.snoop_filter.hit_single_snoops            0                       # Number of snoops hitting in the snoop filter with a single holder of the requested data.
system.membus.snoop_filter.tot_requests      10523129                       # Total number of requests made to the snoop filter.
system.membus.snoop_filter.tot_snoops               0                       # Total number of snoops made to the snoop filter.
system.tol2bus.snoop_filter.hit_multi_requests           58                       # Number of requests hitting in the snoop filter with multiple (>1) holders of the requested data.
system.tol2bus.snoop_filter.hit_multi_snoops           31                       # Number of snoops hitting in the snoop filter with multiple (>1) holders of the requested data.
system.tol2bus.snoop_filter.hit_single_requests      5261564                       # Number of requests hitting in the snoop filter with a single holder of the requested data.
system.tol2bus.snoop_filter.hit_single_snoops      5259612                       # Number of snoops hitting in the snoop filter with a single holder of the requested data.
system.tol2bus.snoop_filter.tot_requests     10525757                       # Total number of requests made to the snoop filter.
system.tol2bus.snoop_filter.tot_snoops        5259643                       # Total number of snoops made to the snoop filter.
system.clk_domain.clock                          1000                       # Clock period in ticks
system.cpu.branchPred.lookups                10658235                       # Number of BP lookups
system.cpu.branchPred.condPredicted          10650001                       # Number of conditional branches predicted
system.cpu.branchPred.condIncorrect              1452                       # Number of conditional branches incorrect
system.cpu.branchPred.BTBLookups             10650208                       # Number of BTB lookups
system.cpu.branchPred.BTBHits                10648847                       # Number of BTB hits
system.cpu.branchPred.BTBHitPct             99.987221                       # BTB Hit Percentage
system.cpu.branchPred.RASUsed                    2713                       # Number of times the RAS was used to get a target.
system.cpu.branchPred.RASIncorrect                  1                       # Number of incorrect RAS predictions.
system.cpu.branchPred.indirectLookups             193                       # Number of indirect predictor lookups.
system.cpu.branchPred.indirectHits                 18                       # Number of indirect target hits.
system.cpu.branchPred.indirectMisses              175                       # Number of indirect misses.
system.cpu.branchPred.indirectMispredicted          105                       # Number of mispredicted indirect branches.
system.cpu.dcache.demand_hits::.cpu.data     75856528                       # number of demand (read+write) hits
system.cpu.dcache.demand_hits::total         75856528                       # number of demand (read+write) hits
system.cpu.dcache.overall_hits::.cpu.data     75856565                       # number of overall hits
system.cpu.dcache.overall_hits::total        75856565                       # number of overall hits
system.cpu.dcache.demand_misses::.cpu.data     10524083                       # number of demand (read+write) misses
system.cpu.dcache.demand_misses::total       10524083                       # number of demand (read+write) misses
system.cpu.dcache.overall_misses::.cpu.data     10524116                       # number of overall misses
system.cpu.dcache.overall_misses::total      10524116                       # number of overall misses
system.cpu.dcache.demand_miss_latency::.cpu.data 1137627449999                       # number of demand (read+write) miss cycles
system.cpu.dcache.demand_miss_latency::total 1137627449999                       # number of demand (read+write) miss cycles
system.cpu.dcache.overall_miss_latency::.cpu.data 1137627449999                       # number of overall miss cycles
system.cpu.dcache.overall_miss_latency::total 1137627449999                       # number of overall miss cycles
system.cpu.dcache.demand_accesses::.cpu.data     86380611                       # number of demand (read+write) accesses
system.cpu.dcache.demand_accesses::total     86380611                       # number of demand (read+write) accesses
system.cpu.dcache.overall_accesses::.cpu.data     86380681                       # number of overall (read+write) accesses
system.cpu.dcache.overall_accesses::total     86380681                       # number of overall (read+write) accesses
system.cpu.dcache.demand_miss_rate::.cpu.data     0.121834                       # miss rate for demand accesses
system.cpu.dcache.demand_miss_rate::total     0.121834                       # miss rate for demand accesses
system.cpu.dcache.overall_miss_rate::.cpu.data     0.121834                       # miss rate for overall accesses
system.cpu.dcache.overall_miss_rate::total     0.121834                       # miss rate for overall accesses
system.cpu.dcache.demand_avg_miss_latency::.cpu.data 108097.536859                       # average overall miss latency
system.cpu.dcache.demand_avg_miss_latency::total 108097.536859                       # average overall miss latency
system.cpu.dcache.overall_avg_miss_latency::.cpu.data 108097.197902                       # average overall miss latency
system.cpu.dcache.overall_avg_miss_latency::total 108097.197902                       # average overall miss latency
system.cpu.dcache.blocked_cycles::no_mshrs          405                       # number of cycles access was blocked
system.cpu.dcache.blocked_cycles::no_targets            0                       # number of cycles access was blocked
system.cpu.dcache.blocked::no_mshrs                 4                       # number of cycles access was blocked
system.cpu.dcache.blocked::no_targets               0                       # number of cycles access was blocked
system.cpu.dcache.avg_blocked_cycles::no_mshrs   101.250000                       # average number of cycles each access was blocked
system.cpu.dcache.avg_blocked_cycles::no_targets          nan                       # average number of cycles each access was blocked
system.cpu.dcache.writebacks::.writebacks      5261210                       # number of writebacks
system.cpu.dcache.writebacks::total           5261210                       # number of writebacks
system.cpu.dcache.demand_mshr_hits::.cpu.data      5260539                       # number of demand (read+write) MSHR hits
system.cpu.dcache.demand_mshr_hits::total      5260539                       # number of demand (read+write) MSHR hits
system.cpu.dcache.overall_mshr_hits::.cpu.data      5260539                       # number of overall MSHR hits
system.cpu.dcache.overall_mshr_hits::total      5260539                       # number of overall MSHR hits
system.cpu.dcache.demand_mshr_misses::.cpu.data      5263544                       # number of demand (read+write) MSHR misses
system.cpu.dcache.demand_mshr_misses::total      5263544                       # number of demand (read+write) MSHR misses
system.cpu.dcache.overall_mshr_misses::.cpu.data      5263574                       # number of overall MSHR misses
system.cpu.dcache.overall_mshr_misses::total      5263574                       # number of overall MSHR misses
system.cpu.dcache.demand_mshr_miss_latency::.cpu.data 555816674000                       # number of demand (read+write) MSHR miss cycles
system.cpu.dcache.demand_mshr_miss_latency::total 555816674000                       # number of demand (read+write) MSHR miss cycles
system.cpu.dcache.overall_mshr_miss_latency::.cpu.data 555820542000                       # number of overall MSHR miss cycles
system.cpu.dcache.overall_mshr_miss_latency::total 555820542000                       # number of overall MSHR miss cycles
system.cpu.dcache.demand_mshr_miss_rate::.cpu.data     0.060934                       # mshr miss rate for demand accesses
system.cpu.dcache.demand_mshr_miss_rate::total     0.060934                       # mshr miss rate for demand accesses
system.cpu.dcache.overall_mshr_miss_rate::.cpu.data     0.060935                       # mshr miss rate for overall accesses
system.cpu.dcache.overall_mshr_miss_rate::total     0.060935                       # mshr miss rate for overall accesses
system.cpu.dcache.demand_avg_mshr_miss_latency::.cpu.data 105597.421433                       # average overall mshr miss latency
system.cpu.dcache.demand_avg_mshr_miss_latency::total 105597.421433                       # average overall mshr miss latency
system.cpu.dcache.overall_avg_mshr_miss_latency::.cpu.data 105597.554437                       # average overall mshr miss latency
system.cpu.dcache.overall_avg_mshr_miss_latency::total 105597.554437                       # average overall mshr miss latency
system.cpu.dcache.replacements                5261526                       # number of replacements
system.cpu.dcache.ReadReq_hits::.cpu.data      2043571                       # number of ReadReq hits
system.cpu.dcache.ReadReq_hits::total         2043571                       # number of ReadReq hits
system.cpu.dcache.ReadReq_misses::.cpu.data          448                       # number of ReadReq misses
system.cpu.dcache.ReadReq_misses::total           448                       # number of ReadReq misses
system.cpu.dcache.ReadReq_miss_latency::.cpu.data     35802000                       # number of ReadReq miss cycles
system.cpu.dcache.ReadReq_miss_latency::total     35802000                       # number of ReadReq miss cycles
system.cpu.dcache.ReadReq_accesses::.cpu.data      2044019                       # number of ReadReq accesses(hits+misses)
system.cpu.dcache.ReadReq_accesses::total      2044019                       # number of ReadReq accesses(hits+misses)
system.cpu.dcache.ReadReq_miss_rate::.cpu.data     0.000219                       # miss rate for ReadReq accesses
system.cpu.dcache.ReadReq_miss_rate::total     0.000219                       # miss rate for ReadReq accesses
system.cpu.dcache.ReadReq_avg_miss_latency::.cpu.data 79915.178571                       # average ReadReq miss latency
system.cpu.dcache.ReadReq_avg_miss_latency::total 79915.178571                       # average ReadReq miss latency
system.cpu.dcache.ReadReq_mshr_hits::.cpu.data           35                       # number of ReadReq MSHR hits
system.cpu.dcache.ReadReq_mshr_hits::total           35                       # number of ReadReq MSHR hits
system.cpu.dcache.ReadReq_mshr_misses::.cpu.data          413                       # number of ReadReq MSHR misses
system.cpu.dcache.ReadReq_mshr_misses::total          413                       # number of ReadReq MSHR misses
system.cpu.dcache.ReadReq_mshr_miss_latency::.cpu.data     32272000                       # number of ReadReq MSHR miss cycles
system.cpu.dcache.ReadReq_mshr_miss_latency::total     32272000                       # number of ReadReq MSHR miss cycles
system.cpu.dcache.ReadReq_mshr_miss_rate::.cpu.data     0.000202                       # mshr miss rate for ReadReq accesses
system.cpu.dcache.ReadReq_mshr_miss_rate::total     0.000202                       # mshr miss rate for ReadReq accesses
system.cpu.dcache.ReadReq_avg_mshr_miss_latency::.cpu.data 78140.435835                       # average ReadReq mshr miss latency
system.cpu.dcache.ReadReq_avg_mshr_miss_latency::total 78140.435835                       # average ReadReq mshr miss latency
system.cpu.dcache.WriteReq_hits::.cpu.data     73812957                       # number of WriteReq hits
system.cpu.dcache.WriteReq_hits::total       73812957                       # number of WriteReq hits
system.cpu.dcache.WriteReq_misses::.cpu.data     10523635                       # number of WriteReq misses
system.cpu.dcache.WriteReq_misses::total     10523635                       # number of WriteReq misses
system.cpu.dcache.WriteReq_miss_latency::.cpu.data 1137591647999                       # number of WriteReq miss cycles
system.cpu.dcache.WriteReq_miss_latency::total 1137591647999                       # number of WriteReq miss cycles
system.cpu.dcache.WriteReq_accesses::.cpu.data     84336592                       # number of WriteReq accesses(hits+misses)
system.cpu.dcache.WriteReq_accesses::total     84336592                       # number of WriteReq accesses(hits+misses)
system.cpu.dcache.WriteReq_miss_rate::.cpu.data     0.124781                       # miss rate for WriteReq accesses
system.cpu.dcache.WriteReq_miss_rate::total     0.124781                       # miss rate for WriteReq accesses
system.cpu.dcache.WriteReq_avg_miss_latency::.cpu.data 108098.736606                       # average WriteReq miss latency
system.cpu.dcache.WriteReq_avg_miss_latency::total 108098.736606                       # average WriteReq miss latency
system.cpu.dcache.WriteReq_mshr_hits::.cpu.data      5260504                       # number of WriteReq MSHR hits
system.cpu.dcache.WriteReq_mshr_hits::total      5260504                       # number of WriteReq MSHR hits
system.cpu.dcache.WriteReq_mshr_misses::.cpu.data      5263131                       # number of WriteReq MSHR misses
system.cpu.dcache.WriteReq_mshr_misses::total      5263131                       # number of WriteReq MSHR misses
system.cpu.dcache.WriteReq_mshr_miss_latency::.cpu.data 555784402000                       # number of WriteReq MSHR miss cycles
system.cpu.dcache.WriteReq_mshr_miss_latency::total 555784402000                       # number of WriteReq MSHR miss cycles
system.cpu.dcache.WriteReq_mshr_miss_rate::.cpu.data     0.062406                       # mshr miss rate for WriteReq accesses
system.cpu.dcache.WriteReq_mshr_miss_rate::total     0.062406                       # mshr miss rate for WriteReq accesses
system.cpu.dcache.WriteReq_avg_mshr_miss_latency::.cpu.data 105599.575994                       # average WriteReq mshr miss latency
system.cpu.dcache.WriteReq_avg_mshr_miss_latency::total 105599.575994                       # average WriteReq mshr miss latency
system.cpu.dcache.SoftPFReq_hits::.cpu.data           37                       # number of SoftPFReq hits
system.cpu.dcache.SoftPFReq_hits::total            37                       # number of SoftPFReq hits
system.cpu.dcache.SoftPFReq_misses::.cpu.data           33                       # number of SoftPFReq misses
system.cpu.dcache.SoftPFReq_misses::total           33                       # number of SoftPFReq misses
system.cpu.dcache.SoftPFReq_accesses::.cpu.data           70                       # number of SoftPFReq accesses(hits+misses)
system.cpu.dcache.SoftPFReq_accesses::total           70                       # number of SoftPFReq accesses(hits+misses)
system.cpu.dcache.SoftPFReq_miss_rate::.cpu.data     0.471429                       # miss rate for SoftPFReq accesses
system.cpu.dcache.SoftPFReq_miss_rate::total     0.471429                       # miss rate for SoftPFReq accesses
system.cpu.dcache.SoftPFReq_mshr_misses::.cpu.data           30                       # number of SoftPFReq MSHR misses
system.cpu.dcache.SoftPFReq_mshr_misses::total           30                       # number of SoftPFReq MSHR misses
system.cpu.dcache.SoftPFReq_mshr_miss_latency::.cpu.data      3868000                       # number of SoftPFReq MSHR miss cycles
system.cpu.dcache.SoftPFReq_mshr_miss_latency::total      3868000                       # number of SoftPFReq MSHR miss cycles
system.cpu.dcache.SoftPFReq_mshr_miss_rate::.cpu.data     0.428571                       # mshr miss rate for SoftPFReq accesses
system.cpu.dcache.SoftPFReq_mshr_miss_rate::total     0.428571                       # mshr miss rate for SoftPFReq accesses
system.cpu.dcache.SoftPFReq_avg_mshr_miss_latency::.cpu.data 128933.333333                       # average SoftPFReq mshr miss latency
system.cpu.dcache.SoftPFReq_avg_mshr_miss_latency::total 128933.333333                       # average SoftPFReq mshr miss latency
system.cpu.dcache.LoadLockedReq_hits::.cpu.data           34                       # number of LoadLockedReq hits
system.cpu.dcache.LoadLockedReq_hits::total           34                       # number of LoadLockedReq hits
system.cpu.dcache.LoadLockedReq_accesses::.cpu.data           34                       # number of LoadLockedReq accesses(hits+misses)
system.cpu.dcache.LoadLockedReq_accesses::total           34                       # number of LoadLockedReq accesses(hits+misses)
system.cpu.dcache.StoreCondReq_hits::.cpu.data           34                       # number of StoreCondReq hits
system.cpu.dcache.StoreCondReq_hits::total           34                       # number of StoreCondReq hits
system.cpu.dcache.StoreCondReq_accesses::.cpu.data           34                       # number of StoreCondReq accesses(hits+misses)
system.cpu.dcache.StoreCondReq_accesses::total           34                       # number of StoreCondReq accesses(hits+misses)
system.cpu.dcache.power_state.pwrStateResidencyTicks::UNDEFINED 719686330000                       # Cumulative time (in ticks) in various power states
system.cpu.dcache.tags.tagsinuse          2042.725692                       # Cycle average of tags in use
system.cpu.dcache.tags.total_refs            81120207                       # Total number of references to valid blocks.
system.cpu.dcache.tags.sampled_refs           5263574                       # Sample count of references to valid blocks.
system.cpu.dcache.tags.avg_refs             15.411621                       # Average number of references to valid blocks.
system.cpu.dcache.tags.warmup_cycle            223000                       # Cycle when the warmup percentage was hit.
system.cpu.dcache.tags.occ_blocks::.cpu.data  2042.725692                       # Average occupied blocks per requestor
system.cpu.dcache.tags.occ_percent::.cpu.data     0.997425                       # Average percentage of cache occupancy
system.cpu.dcache.tags.occ_percent::total     0.997425                       # Average percentage of cache occupancy
system.cpu.dcache.tags.occ_task_id_blocks::1024         2048                       # Occupied blocks per task id
system.cpu.dcache.tags.age_task_id_blocks_1024::0           74                       # Occupied blocks per task id
system.cpu.dcache.tags.age_task_id_blocks_1024::1          664                       # Occupied blocks per task id
system.cpu.dcache.tags.age_task_id_blocks_1024::2         1310                       # Occupied blocks per task id
system.cpu.dcache.tags.occ_task_id_percent::1024            1                       # Percentage of cache occupancy per task id
system.cpu.dcache.tags.tag_accesses          91644323                       # Number of tag accesses
system.cpu.dcache.tags.data_accesses         91644323                       # Number of data accesses
system.cpu.dcache.tags.power_state.pwrStateResidencyTicks::UNDEFINED 719686330000                       # Cumulative time (in ticks) in various power states
system.cpu.dtb.instHits                             0                       # ITB inst hits
system.cpu.dtb.instMisses                           0                       # ITB inst misses
system.cpu.dtb.readHits                             0                       # DTB read hits
system.cpu.dtb.readMisses                           0                       # DTB read misses
system.cpu.dtb.writeHits                            0                       # DTB write hits
system.cpu.dtb.writeMisses                          0                       # DTB write misses
system.cpu.dtb.inserts                              0                       # Number of times an entry is inserted into the TLB
system.cpu.dtb.flushTlb                             0                       # Number of times complete TLB was flushed
system.cpu.dtb.flushTlbMva                          0                       # Number of times TLB was flushed by MVA
system.cpu.dtb.flushTlbMvaAsid                      0                       # Number of times TLB was flushed by MVA & ASID
system.cpu.dtb.flushTlbAsid                         0                       # Number of times TLB was flushed by ASID
system.cpu.dtb.flushedEntries                       0                       # Number of entries that have been flushed from TLB
system.cpu.dtb.alignFaults                          0                       # Number of TLB faults due to alignment restrictions
system.cpu.dtb.prefetchFaults                       0                       # Number of TLB faults due to prefetch
system.cpu.dtb.domainFaults                         0                       # Number of TLB faults due to domain restrictions
system.cpu.dtb.permsFaults                          0                       # Number of TLB faults due to permissions restrictions
system.cpu.dtb.readAccesses                         0                       # DTB read accesses
system.cpu.dtb.writeAccesses                        0                       # DTB write accesses
system.cpu.dtb.instAccesses                         0                       # ITB inst accesses
system.cpu.dtb.hits                                 0                       # Total TLB (inst and data) hits
system.cpu.dtb.misses                               0                       # Total TLB (inst and data) misses
system.cpu.dtb.accesses                             0                       # Total TLB (inst and data) accesses
system.cpu.dtb.stage2_mmu.stage2_tlb.instHits            0                       # ITB inst hits
system.cpu.dtb.stage2_mmu.stage2_tlb.instMisses            0                       # ITB inst misses
system.cpu.dtb.stage2_mmu.stage2_tlb.readHits            0                       # DTB read hits
system.cpu.dtb.stage2_mmu.stage2_tlb.readMisses            0                       # DTB read misses
system.cpu.dtb.stage2_mmu.stage2_tlb.writeHits            0                       # DTB write hits
system.cpu.dtb.stage2_mmu.stage2_tlb.writeMisses            0                       # DTB write misses
system.cpu.dtb.stage2_mmu.stage2_tlb.inserts            0                       # Number of times an entry is inserted into the TLB
system.cpu.dtb.stage2_mmu.stage2_tlb.flushTlb            0                       # Number of times complete TLB was flushed
system.cpu.dtb.stage2_mmu.stage2_tlb.flushTlbMva            0                       # Number of times TLB was flushed by MVA
system.cpu.dtb.stage2_mmu.stage2_tlb.flushTlbMvaAsid            0                       # Number of times TLB was flushed by MVA & ASID
system.cpu.dtb.stage2_mmu.stage2_tlb.flushTlbAsid            0                       # Number of times TLB was flushed by ASID
system.cpu.dtb.stage2_mmu.stage2_tlb.flushedEntries            0                       # Number of entries that have been flushed from TLB
system.cpu.dtb.stage2_mmu.stage2_tlb.alignFaults            0                       # Number of TLB faults due to alignment restrictions
system.cpu.dtb.stage2_mmu.stage2_tlb.prefetchFaults            0                       # Number of TLB faults due to prefetch
system.cpu.dtb.stage2_mmu.stage2_tlb.domainFaults            0                       # Number of TLB faults due to domain restrictions
system.cpu.dtb.stage2_mmu.stage2_tlb.permsFaults            0                       # Number of TLB faults due to permissions restrictions
system.cpu.dtb.stage2_mmu.stage2_tlb.readAccesses            0                       # DTB read accesses
system.cpu.dtb.stage2_mmu.stage2_tlb.writeAccesses            0                       # DTB write accesses
system.cpu.dtb.stage2_mmu.stage2_tlb.instAccesses            0                       # ITB inst accesses
system.cpu.dtb.stage2_mmu.stage2_tlb.hits            0                       # Total TLB (inst and data) hits
system.cpu.dtb.stage2_mmu.stage2_tlb.misses            0                       # Total TLB (inst and data) misses
system.cpu.dtb.stage2_mmu.stage2_tlb.accesses            0                       # Total TLB (inst and data) accesses
system.cpu.dtb.stage2_mmu.stage2_tlb.walker.walks            0                       # Table walker walks requested
system.cpu.dtb.stage2_mmu.stage2_tlb.walker.requestOrigin_Requested::Data            0                       # Table walker requests started/completed, data/inst
system.cpu.dtb.stage2_mmu.stage2_tlb.walker.requestOrigin_Requested::Inst            0                       # Table walker requests started/completed, data/inst
system.cpu.dtb.stage2_mmu.stage2_tlb.walker.requestOrigin_Requested::total            0                       # Table walker requests started/completed, data/inst
system.cpu.dtb.stage2_mmu.stage2_tlb.walker.requestOrigin_Completed::Data            0                       # Table walker requests started/completed, data/inst
system.cpu.dtb.stage2_mmu.stage2_tlb.walker.requestOrigin_Completed::Inst            0                       # Table walker requests started/completed, data/inst
system.cpu.dtb.stage2_mmu.stage2_tlb.walker.requestOrigin_Completed::total            0                       # Table walker requests started/completed, data/inst
system.cpu.dtb.stage2_mmu.stage2_tlb.walker.requestOrigin::total            0                       # Table walker requests started/completed, data/inst
system.cpu.dtb.stage2_mmu.stage2_tlb.walker.power_state.pwrStateResidencyTicks::UNDEFINED 719686330000                       # Cumulative time (in ticks) in various power states
system.cpu.dtb.walker.walks                         0                       # Table walker walks requested
system.cpu.dtb.walker.requestOrigin_Requested::Data            0                       # Table walker requests started/completed, data/inst
system.cpu.dtb.walker.requestOrigin_Requested::Inst            0                       # Table walker requests started/completed, data/inst
system.cpu.dtb.walker.requestOrigin_Requested::total            0                       # Table walker requests started/completed, data/inst
system.cpu.dtb.walker.requestOrigin_Completed::Data            0                       # Table walker requests started/completed, data/inst
system.cpu.dtb.walker.requestOrigin_Completed::Inst            0                       # Table walker requests started/completed, data/inst
system.cpu.dtb.walker.requestOrigin_Completed::total            0                       # Table walker requests started/completed, data/inst
system.cpu.dtb.walker.requestOrigin::total            0                       # Table walker requests started/completed, data/inst
system.cpu.dtb.walker.power_state.pwrStateResidencyTicks::UNDEFINED 719686330000                       # Cumulative time (in ticks) in various power states
system.cpu.fetch2.intInstructions            45070983                       # Number of integer instructions successfully decoded
system.cpu.fetch2.fpInstructions                    0                       # Number of floating point instructions successfully decoded
system.cpu.fetch2.vecInstructions                   0                       # Number of SIMD instructions successfully decoded
system.cpu.fetch2.loadInstructions            2086417                       # Number of memory load instructions successfully decoded
system.cpu.fetch2.storeInstructions            169118                       # Number of memory store instructions successfully decoded
system.cpu.fetch2.amoInstructions                   0                       # Number of memory atomic instructions successfully decoded
system.cpu.icache.demand_hits::.cpu.inst     32144825                       # number of demand (read+write) hits
system.cpu.icache.demand_hits::total         32144825                       # number of demand (read+write) hits
system.cpu.icache.overall_hits::.cpu.inst     32144825                       # number of overall hits
system.cpu.icache.overall_hits::total        32144825                       # number of overall hits
system.cpu.icache.demand_misses::.cpu.inst          619                       # number of demand (read+write) misses
system.cpu.icache.demand_misses::total            619                       # number of demand (read+write) misses
system.cpu.icache.overall_misses::.cpu.inst          619                       # number of overall misses
system.cpu.icache.overall_misses::total           619                       # number of overall misses
system.cpu.icache.demand_miss_latency::.cpu.inst     62403000                       # number of demand (read+write) miss cycles
system.cpu.icache.demand_miss_latency::total     62403000                       # number of demand (read+write) miss cycles
system.cpu.icache.overall_miss_latency::.cpu.inst     62403000                       # number of overall miss cycles
system.cpu.icache.overall_miss_latency::total     62403000                       # number of overall miss cycles
system.cpu.icache.demand_accesses::.cpu.inst     32145444                       # number of demand (read+write) accesses
system.cpu.icache.demand_accesses::total     32145444                       # number of demand (read+write) accesses
system.cpu.icache.overall_accesses::.cpu.inst     32145444                       # number of overall (read+write) accesses
system.cpu.icache.overall_accesses::total     32145444                       # number of overall (read+write) accesses
system.cpu.icache.demand_miss_rate::.cpu.inst     0.000019                       # miss rate for demand accesses
system.cpu.icache.demand_miss_rate::total     0.000019                       # miss rate for demand accesses
system.cpu.icache.overall_miss_rate::.cpu.inst     0.000019                       # miss rate for overall accesses
system.cpu.icache.overall_miss_rate::total     0.000019                       # miss rate for overall accesses
system.cpu.icache.demand_avg_miss_latency::.cpu.inst 100812.600969                       # average overall miss latency
system.cpu.icache.demand_avg_miss_latency::total 100812.600969                       # average overall miss latency
system.cpu.icache.overall_avg_miss_latency::.cpu.inst 100812.600969                       # average overall miss latency
system.cpu.icache.overall_avg_miss_latency::total 100812.600969                       # average overall miss latency
system.cpu.icache.blocked_cycles::no_mshrs            0                       # number of cycles access was blocked
system.cpu.icache.blocked_cycles::no_targets            0                       # number of cycles access was blocked
system.cpu.icache.blocked::no_mshrs                 0                       # number of cycles access was blocked
system.cpu.icache.blocked::no_targets               0                       # number of cycles access was blocked
system.cpu.icache.avg_blocked_cycles::no_mshrs          nan                       # average number of cycles each access was blocked
system.cpu.icache.avg_blocked_cycles::no_targets          nan                       # average number of cycles each access was blocked
system.cpu.icache.writebacks::.writebacks           38                       # number of writebacks
system.cpu.icache.writebacks::total                38                       # number of writebacks
system.cpu.icache.demand_mshr_misses::.cpu.inst          619                       # number of demand (read+write) MSHR misses
system.cpu.icache.demand_mshr_misses::total          619                       # number of demand (read+write) MSHR misses
system.cpu.icache.overall_mshr_misses::.cpu.inst          619                       # number of overall MSHR misses
system.cpu.icache.overall_mshr_misses::total          619                       # number of overall MSHR misses
system.cpu.icache.demand_mshr_miss_latency::.cpu.inst     61165000                       # number of demand (read+write) MSHR miss cycles
system.cpu.icache.demand_mshr_miss_latency::total     61165000                       # number of demand (read+write) MSHR miss cycles
system.cpu.icache.overall_mshr_miss_latency::.cpu.inst     61165000                       # number of overall MSHR miss cycles
system.cpu.icache.overall_mshr_miss_latency::total     61165000                       # number of overall MSHR miss cycles
system.cpu.icache.demand_mshr_miss_rate::.cpu.inst     0.000019                       # mshr miss rate for demand accesses
system.cpu.icache.demand_mshr_miss_rate::total     0.000019                       # mshr miss rate for demand accesses
system.cpu.icache.overall_mshr_miss_rate::.cpu.inst     0.000019                       # mshr miss rate for overall accesses
system.cpu.icache.overall_mshr_miss_rate::total     0.000019                       # mshr miss rate for overall accesses
system.cpu.icache.demand_avg_mshr_miss_latency::.cpu.inst 98812.600969                       # average overall mshr miss latency
system.cpu.icache.demand_avg_mshr_miss_latency::total 98812.600969                       # average overall mshr miss latency
system.cpu.icache.overall_avg_mshr_miss_latency::.cpu.inst 98812.600969                       # average overall mshr miss latency
system.cpu.icache.overall_avg_mshr_miss_latency::total 98812.600969                       # average overall mshr miss latency
system.cpu.icache.replacements                     38                       # number of replacements
system.cpu.icache.ReadReq_hits::.cpu.inst     32144825                       # number of ReadReq hits
system.cpu.icache.ReadReq_hits::total        32144825                       # number of ReadReq hits
system.cpu.icache.ReadReq_misses::.cpu.inst          619                       # number of ReadReq misses
system.cpu.icache.ReadReq_misses::total           619                       # number of ReadReq misses
system.cpu.icache.ReadReq_miss_latency::.cpu.inst     62403000                       # number of ReadReq miss cycles
system.cpu.icache.ReadReq_miss_latency::total     62403000                       # number of ReadReq miss cycles
system.cpu.icache.ReadReq_accesses::.cpu.inst     32145444                       # number of ReadReq accesses(hits+misses)
system.cpu.icache.ReadReq_accesses::total     32145444                       # number of ReadReq accesses(hits+misses)
system.cpu.icache.ReadReq_miss_rate::.cpu.inst     0.000019                       # miss rate for ReadReq accesses
system.cpu.icache.ReadReq_miss_rate::total     0.000019                       # miss rate for ReadReq accesses
system.cpu.icache.ReadReq_avg_miss_latency::.cpu.inst 100812.600969                       # average ReadReq miss latency
system.cpu.icache.ReadReq_avg_miss_latency::total 100812.600969                       # average ReadReq miss latency
system.cpu.icache.ReadReq_mshr_misses::.cpu.inst          619                       # number of ReadReq MSHR misses
system.cpu.icache.ReadReq_mshr_misses::total          619                       # number of ReadReq MSHR misses
system.cpu.icache.ReadReq_mshr_miss_latency::.cpu.inst     61165000                       # number of ReadReq MSHR miss cycles
system.cpu.icache.ReadReq_mshr_miss_latency::total     61165000                       # number of ReadReq MSHR miss cycles
system.cpu.icache.ReadReq_mshr_miss_rate::.cpu.inst     0.000019                       # mshr miss rate for ReadReq accesses
system.cpu.icache.ReadReq_mshr_miss_rate::total     0.000019                       # mshr miss rate for ReadReq accesses
system.cpu.icache.ReadReq_avg_mshr_miss_latency::.cpu.inst 98812.600969                       # average ReadReq mshr miss latency
system.cpu.icache.ReadReq_avg_mshr_miss_latency::total 98812.600969                       # average ReadReq mshr miss latency
system.cpu.icache.power_state.pwrStateResidencyTicks::UNDEFINED 719686330000                       # Cumulative time (in ticks) in various power states
system.cpu.icache.tags.tagsinuse           485.713948                       # Cycle average of tags in use
system.cpu.icache.tags.total_refs            32145444                       # Total number of references to valid blocks.
system.cpu.icache.tags.sampled_refs               619                       # Sample count of references to valid blocks.
system.cpu.icache.tags.avg_refs          51931.250404                       # Average number of references to valid blocks.
system.cpu.icache.tags.warmup_cycle            108000                       # Cycle when the warmup percentage was hit.
system.cpu.icache.tags.occ_blocks::.cpu.inst   485.713948                       # Average occupied blocks per requestor
system.cpu.icache.tags.occ_percent::.cpu.inst     0.237165                       # Average percentage of cache occupancy
system.cpu.icache.tags.occ_percent::total     0.237165                       # Average percentage of cache occupancy
system.cpu.icache.tags.occ_task_id_blocks::1024          581                       # Occupied blocks per task id
system.cpu.icache.tags.age_task_id_blocks_1024::4          581                       # Occupied blocks per task id
system.cpu.icache.tags.occ_task_id_percent::1024     0.283691                       # Percentage of cache occupancy per task id
system.cpu.icache.tags.tag_accesses          32146063                       # Number of tag accesses
system.cpu.icache.tags.data_accesses         32146063                       # Number of data accesses
system.cpu.icache.tags.power_state.pwrStateResidencyTicks::UNDEFINED 719686330000                       # Cumulative time (in ticks) in various power states
system.cpu.itb.instHits                             0                       # ITB inst hits
system.cpu.itb.instMisses                           0                       # ITB inst misses
system.cpu.itb.readHits                             0                       # DTB read hits
system.cpu.itb.readMisses                           0                       # DTB read misses
system.cpu.itb.writeHits                            0                       # DTB write hits
system.cpu.itb.writeMisses                          0                       # DTB write misses
system.cpu.itb.inserts                              0                       # Number of times an entry is inserted into the TLB
system.cpu.itb.flushTlb                             0                       # Number of times complete TLB was flushed
system.cpu.itb.flushTlbMva                          0                       # Number of times TLB was flushed by MVA
system.cpu.itb.flushTlbMvaAsid                      0                       # Number of times TLB was flushed by MVA & ASID
system.cpu.itb.flushTlbAsid                         0                       # Number of times TLB was flushed by ASID
system.cpu.itb.flushedEntries                       0                       # Number of entries that have been flushed from TLB
system.cpu.itb.alignFaults                          0                       # Number of TLB faults due to alignment restrictions
system.cpu.itb.prefetchFaults                       0                       # Number of TLB faults due to prefetch
system.cpu.itb.domainFaults                         0                       # Number of TLB faults due to domain restrictions
system.cpu.itb.permsFaults                          0                       # Number of TLB faults due to permissions restrictions
system.cpu.itb.readAccesses                         0                       # DTB read accesses
system.cpu.itb.writeAccesses                        0                       # DTB write accesses
system.cpu.itb.instAccesses                         0                       # ITB inst accesses
system.cpu.itb.hits                                 0                       # Total TLB (inst and data) hits
system.cpu.itb.misses                               0                       # Total TLB (inst and data) misses
system.cpu.itb.accesses                             0                       # Total TLB (inst and data) accesses
system.cpu.itb.stage2_mmu.stage2_tlb.instHits            0                       # ITB inst hits
system.cpu.itb.stage2_mmu.stage2_tlb.instMisses            0                       # ITB inst misses
system.cpu.itb.stage2_mmu.stage2_tlb.readHits            0                       # DTB read hits
system.cpu.itb.stage2_mmu.stage2_tlb.readMisses            0                       # DTB read misses
system.cpu.itb.stage2_mmu.stage2_tlb.writeHits            0                       # DTB write hits
system.cpu.itb.stage2_mmu.stage2_tlb.writeMisses            0                       # DTB write misses
system.cpu.itb.stage2_mmu.stage2_tlb.inserts            0                       # Number of times an entry is inserted into the TLB
system.cpu.itb.stage2_mmu.stage2_tlb.flushTlb            0                       # Number of times complete TLB was flushed
system.cpu.itb.stage2_mmu.stage2_tlb.flushTlbMva            0                       # Number of times TLB was flushed by MVA
system.cpu.itb.stage2_mmu.stage2_tlb.flushTlbMvaAsid            0                       # Number of times TLB was flushed by MVA & ASID
system.cpu.itb.stage2_mmu.stage2_tlb.flushTlbAsid            0                       # Number of times TLB was flushed by ASID
system.cpu.itb.stage2_mmu.stage2_tlb.flushedEntries            0                       # Number of entries that have been flushed from TLB
system.cpu.itb.stage2_mmu.stage2_tlb.alignFaults            0                       # Number of TLB faults due to alignment restrictions
system.cpu.itb.stage2_mmu.stage2_tlb.prefetchFaults            0                       # Number of TLB faults due to prefetch
system.cpu.itb.stage2_mmu.stage2_tlb.domainFaults            0                       # Number of TLB faults due to domain restrictions
system.cpu.itb.stage2_mmu.stage2_tlb.permsFaults            0                       # Number of TLB faults due to permissions restrictions
system.cpu.itb.stage2_mmu.stage2_tlb.readAccesses            0                       # DTB read accesses
system.cpu.itb.stage2_mmu.stage2_tlb.writeAccesses            0                       # DTB write accesses
system.cpu.itb.stage2_mmu.stage2_tlb.instAccesses            0                       # ITB inst accesses
system.cpu.itb.stage2_mmu.stage2_tlb.hits            0                       # Total TLB (inst and data) hits
system.cpu.itb.stage2_mmu.stage2_tlb.misses            0                       # Total TLB (inst and data) misses
system.cpu.itb.stage2_mmu.stage2_tlb.accesses            0                       # Total TLB (inst and data) accesses
system.cpu.itb.stage2_mmu.stage2_tlb.walker.walks            0                       # Table walker walks requested
system.cpu.itb.stage2_mmu.stage2_tlb.walker.requestOrigin_Requested::Data            0                       # Table walker requests started/completed, data/inst
system.cpu.itb.stage2_mmu.stage2_tlb.walker.requestOrigin_Requested::Inst            0                       # Table walker requests started/completed, data/inst
system.cpu.itb.stage2_mmu.stage2_tlb.walker.requestOrigin_Requested::total            0                       # Table walker requests started/completed, data/inst
system.cpu.itb.stage2_mmu.stage2_tlb.walker.requestOrigin_Completed::Data            0                       # Table walker requests started/completed, data/inst
system.cpu.itb.stage2_mmu.stage2_tlb.walker.requestOrigin_Completed::Inst            0                       # Table walker requests started/completed, data/inst
system.cpu.itb.stage2_mmu.stage2_tlb.walker.requestOrigin_Completed::total            0                       # Table walker requests started/completed, data/inst
system.cpu.itb.stage2_mmu.stage2_tlb.walker.requestOrigin::total            0                       # Table walker requests started/completed, data/inst
system.cpu.itb.stage2_mmu.stage2_tlb.walker.power_state.pwrStateResidencyTicks::UNDEFINED 719686330000                       # Cumulative time (in ticks) in various power states
system.cpu.itb.walker.walks                         0                       # Table walker walks requested
system.cpu.itb.walker.requestOrigin_Requested::Data            0                       # Table walker requests started/completed, data/inst
system.cpu.itb.walker.requestOrigin_Requested::Inst            0                       # Table walker requests started/completed, data/inst
system.cpu.itb.walker.requestOrigin_Requested::total            0                       # Table walker requests started/completed, data/inst
system.cpu.itb.walker.requestOrigin_Completed::Data            0                       # Table walker requests started/completed, data/inst
system.cpu.itb.walker.requestOrigin_Completed::Inst            0                       # Table walker requests started/completed, data/inst
system.cpu.itb.walker.requestOrigin_Completed::total            0                       # Table walker requests started/completed, data/inst
system.cpu.itb.walker.requestOrigin::total            0                       # Table walker requests started/completed, data/inst
system.cpu.itb.walker.power_state.pwrStateResidencyTicks::UNDEFINED 719686330000                       # Cumulative time (in ticks) in various power states
system.cpu.power_state.pwrStateResidencyTicks::ON 719686330000                       # Cumulative time (in ticks) in various power states
system.cpu.thread_0.numInsts                100000001                       # Number of Instructions committed
system.cpu.thread_0.numOps                  184218784                       # Number of Ops committed
system.cpu.thread_0.numMemRefs                      0                       # Number of Memory References
system.cpu_clk_domain.clock                      1000                       # Clock period in ticks
system.cpu_voltage_domain.voltage                   1                       # Voltage in Volts
system.l2.demand_hits::.cpu.inst                   29                       # number of demand (read+write) hits
system.l2.demand_hits::.cpu.data                  247                       # number of demand (read+write) hits
system.l2.demand_hits::total                      276                       # number of demand (read+write) hits
system.l2.overall_hits::.cpu.inst                  29                       # number of overall hits
system.l2.overall_hits::.cpu.data                 247                       # number of overall hits
system.l2.overall_hits::total                     276                       # number of overall hits
system.l2.demand_misses::.cpu.inst                590                       # number of demand (read+write) misses
system.l2.demand_misses::.cpu.data            5263327                       # number of demand (read+write) misses
system.l2.demand_misses::total                5263917                       # number of demand (read+write) misses
system.l2.overall_misses::.cpu.inst               590                       # number of overall misses
system.l2.overall_misses::.cpu.data           5263327                       # number of overall misses
system.l2.overall_misses::total               5263917                       # number of overall misses
system.l2.demand_miss_latency::.cpu.inst     58657000                       # number of demand (read+write) miss cycles
system.l2.demand_miss_latency::.cpu.data 540021717000                       # number of demand (read+write) miss cycles
system.l2.demand_miss_latency::total     540080374000                       # number of demand (read+write) miss cycles
system.l2.overall_miss_latency::.cpu.inst     58657000                       # number of overall miss cycles
system.l2.overall_miss_latency::.cpu.data 540021717000                       # number of overall miss cycles
system.l2.overall_miss_latency::total    540080374000                       # number of overall miss cycles
system.l2.demand_accesses::.cpu.inst              619                       # number of demand (read+write) accesses
system.l2.demand_accesses::.cpu.data          5263574                       # number of demand (read+write) accesses
system.l2.demand_accesses::total              5264193                       # number of demand (read+write) accesses
system.l2.overall_accesses::.cpu.inst             619                       # number of overall (read+write) accesses
system.l2.overall_accesses::.cpu.data         5263574                       # number of overall (read+write) accesses
system.l2.overall_accesses::total             5264193                       # number of overall (read+write) accesses
system.l2.demand_miss_rate::.cpu.inst        0.953150                       # miss rate for demand accesses
system.l2.demand_miss_rate::.cpu.data        0.999953                       # miss rate for demand accesses
system.l2.demand_miss_rate::total            0.999948                       # miss rate for demand accesses
system.l2.overall_miss_rate::.cpu.inst       0.953150                       # miss rate for overall accesses
system.l2.overall_miss_rate::.cpu.data       0.999953                       # miss rate for overall accesses
system.l2.overall_miss_rate::total           0.999948                       # miss rate for overall accesses
system.l2.demand_avg_miss_latency::.cpu.inst 99418.644068                       # average overall miss latency
system.l2.demand_avg_miss_latency::.cpu.data 102600.829665                       # average overall miss latency
system.l2.demand_avg_miss_latency::total 102600.472994                       # average overall miss latency
system.l2.overall_avg_miss_latency::.cpu.inst 99418.644068                       # average overall miss latency
system.l2.overall_avg_miss_latency::.cpu.data 102600.829665                       # average overall miss latency
system.l2.overall_avg_miss_latency::total 102600.472994                       # average overall miss latency
system.l2.blocked_cycles::no_mshrs                  0                       # number of cycles access was blocked
system.l2.blocked_cycles::no_targets                0                       # number of cycles access was blocked
system.l2.blocked::no_mshrs                         0                       # number of cycles access was blocked
system.l2.blocked::no_targets                       0                       # number of cycles access was blocked
system.l2.avg_blocked_cycles::no_mshrs            nan                       # average number of cycles each access was blocked
system.l2.avg_blocked_cycles::no_targets          nan                       # average number of cycles each access was blocked
system.l2.writebacks::.writebacks             5258956                       # number of writebacks
system.l2.writebacks::total                   5258956                       # number of writebacks
system.l2.demand_mshr_hits::.cpu.inst               1                       # number of demand (read+write) MSHR hits
system.l2.demand_mshr_hits::.cpu.data               6                       # number of demand (read+write) MSHR hits
system.l2.demand_mshr_hits::total                   7                       # number of demand (read+write) MSHR hits
system.l2.overall_mshr_hits::.cpu.inst              1                       # number of overall MSHR hits
system.l2.overall_mshr_hits::.cpu.data              6                       # number of overall MSHR hits
system.l2.overall_mshr_hits::total                  7                       # number of overall MSHR hits
system.l2.demand_mshr_misses::.cpu.inst           589                       # number of demand (read+write) MSHR misses
system.l2.demand_mshr_misses::.cpu.data       5263321                       # number of demand (read+write) MSHR misses
system.l2.demand_mshr_misses::total           5263910                       # number of demand (read+write) MSHR misses
system.l2.overall_mshr_misses::.cpu.inst          589                       # number of overall MSHR misses
system.l2.overall_mshr_misses::.cpu.data      5263321                       # number of overall MSHR misses
system.l2.overall_mshr_misses::total          5263910                       # number of overall MSHR misses
system.l2.demand_mshr_miss_latency::.cpu.inst     46798000                       # number of demand (read+write) MSHR miss cycles
system.l2.demand_mshr_miss_latency::.cpu.data 434754590000                       # number of demand (read+write) MSHR miss cycles
system.l2.demand_mshr_miss_latency::total 434801388000                       # number of demand (read+write) MSHR miss cycles
system.l2.overall_mshr_miss_latency::.cpu.inst     46798000                       # number of overall MSHR miss cycles
system.l2.overall_mshr_miss_latency::.cpu.data 434754590000                       # number of overall MSHR miss cycles
system.l2.overall_mshr_miss_latency::total 434801388000                       # number of overall MSHR miss cycles
system.l2.demand_mshr_miss_rate::.cpu.inst     0.951535                       # mshr miss rate for demand accesses
system.l2.demand_mshr_miss_rate::.cpu.data     0.999952                       # mshr miss rate for demand accesses
system.l2.demand_mshr_miss_rate::total       0.999946                       # mshr miss rate for demand accesses
system.l2.overall_mshr_miss_rate::.cpu.inst     0.951535                       # mshr miss rate for overall accesses
system.l2.overall_mshr_miss_rate::.cpu.data     0.999952                       # mshr miss rate for overall accesses
system.l2.overall_mshr_miss_rate::total      0.999946                       # mshr miss rate for overall accesses
system.l2.demand_avg_mshr_miss_latency::.cpu.inst 79453.310696                       # average overall mshr miss latency
system.l2.demand_avg_mshr_miss_latency::.cpu.data 82600.812301                       # average overall mshr miss latency
system.l2.demand_avg_mshr_miss_latency::total 82600.460114                       # average overall mshr miss latency
system.l2.overall_avg_mshr_miss_latency::.cpu.inst 79453.310696                       # average overall mshr miss latency
system.l2.overall_avg_mshr_miss_latency::.cpu.data 82600.812301                       # average overall mshr miss latency
system.l2.overall_avg_mshr_miss_latency::total 82600.460114                       # average overall mshr miss latency
system.l2.replacements                       10518696                       # number of replacements
system.l2.WritebackDirty_hits::.writebacks      5261210                       # number of WritebackDirty hits
system.l2.WritebackDirty_hits::total          5261210                       # number of WritebackDirty hits
system.l2.WritebackDirty_accesses::.writebacks      5261210                       # number of WritebackDirty accesses(hits+misses)
system.l2.WritebackDirty_accesses::total      5261210                       # number of WritebackDirty accesses(hits+misses)
system.l2.WritebackClean_hits::.writebacks           37                       # number of WritebackClean hits
system.l2.WritebackClean_hits::total               37                       # number of WritebackClean hits
system.l2.WritebackClean_accesses::.writebacks           37                       # number of WritebackClean accesses(hits+misses)
system.l2.WritebackClean_accesses::total           37                       # number of WritebackClean accesses(hits+misses)
system.l2.CleanEvict_mshr_misses::.writebacks          167                       # number of CleanEvict MSHR misses
system.l2.CleanEvict_mshr_misses::total           167                       # number of CleanEvict MSHR misses
system.l2.CleanEvict_mshr_miss_rate::.writebacks          inf                       # mshr miss rate for CleanEvict accesses
system.l2.CleanEvict_mshr_miss_rate::total          inf                       # mshr miss rate for CleanEvict accesses
system.l2.ReadExReq_hits::.cpu.data               108                       # number of ReadExReq hits
system.l2.ReadExReq_hits::total                   108                       # number of ReadExReq hits
system.l2.ReadExReq_misses::.cpu.data         5263023                       # number of ReadExReq misses
system.l2.ReadExReq_misses::total             5263023                       # number of ReadExReq misses
system.l2.ReadExReq_miss_latency::.cpu.data 539989880000                       # number of ReadExReq miss cycles
system.l2.ReadExReq_miss_latency::total  539989880000                       # number of ReadExReq miss cycles
system.l2.ReadExReq_accesses::.cpu.data       5263131                       # number of ReadExReq accesses(hits+misses)
system.l2.ReadExReq_accesses::total           5263131                       # number of ReadExReq accesses(hits+misses)
system.l2.ReadExReq_miss_rate::.cpu.data     0.999979                       # miss rate for ReadExReq accesses
system.l2.ReadExReq_miss_rate::total         0.999979                       # miss rate for ReadExReq accesses
system.l2.ReadExReq_avg_miss_latency::.cpu.data 102600.706856                       # average ReadExReq miss latency
system.l2.ReadExReq_avg_miss_latency::total 102600.706856                       # average ReadExReq miss latency
system.l2.ReadExReq_mshr_misses::.cpu.data      5263023                       # number of ReadExReq MSHR misses
system.l2.ReadExReq_mshr_misses::total        5263023                       # number of ReadExReq MSHR misses
system.l2.ReadExReq_mshr_miss_latency::.cpu.data 434729420000                       # number of ReadExReq MSHR miss cycles
system.l2.ReadExReq_mshr_miss_latency::total 434729420000                       # number of ReadExReq MSHR miss cycles
system.l2.ReadExReq_mshr_miss_rate::.cpu.data     0.999979                       # mshr miss rate for ReadExReq accesses
system.l2.ReadExReq_mshr_miss_rate::total     0.999979                       # mshr miss rate for ReadExReq accesses
system.l2.ReadExReq_avg_mshr_miss_latency::.cpu.data 82600.706856                       # average ReadExReq mshr miss latency
system.l2.ReadExReq_avg_mshr_miss_latency::total 82600.706856                       # average ReadExReq mshr miss latency
system.l2.ReadCleanReq_hits::.cpu.inst             29                       # number of ReadCleanReq hits
system.l2.ReadCleanReq_hits::total                 29                       # number of ReadCleanReq hits
system.l2.ReadCleanReq_misses::.cpu.inst          590                       # number of ReadCleanReq misses
system.l2.ReadCleanReq_misses::total              590                       # number of ReadCleanReq misses
system.l2.ReadCleanReq_miss_latency::.cpu.inst     58657000                       # number of ReadCleanReq miss cycles
system.l2.ReadCleanReq_miss_latency::total     58657000                       # number of ReadCleanReq miss cycles
system.l2.ReadCleanReq_accesses::.cpu.inst          619                       # number of ReadCleanReq accesses(hits+misses)
system.l2.ReadCleanReq_accesses::total            619                       # number of ReadCleanReq accesses(hits+misses)
system.l2.ReadCleanReq_miss_rate::.cpu.inst     0.953150                       # miss rate for ReadCleanReq accesses
system.l2.ReadCleanReq_miss_rate::total      0.953150                       # miss rate for ReadCleanReq accesses
system.l2.ReadCleanReq_avg_miss_latency::.cpu.inst 99418.644068                       # average ReadCleanReq miss latency
system.l2.ReadCleanReq_avg_miss_latency::total 99418.644068                       # average ReadCleanReq miss latency
system.l2.ReadCleanReq_mshr_hits::.cpu.inst            1                       # number of ReadCleanReq MSHR hits
system.l2.ReadCleanReq_mshr_hits::total             1                       # number of ReadCleanReq MSHR hits
system.l2.ReadCleanReq_mshr_misses::.cpu.inst          589                       # number of ReadCleanReq MSHR misses
system.l2.ReadCleanReq_mshr_misses::total          589                       # number of ReadCleanReq MSHR misses
system.l2.ReadCleanReq_mshr_miss_latency::.cpu.inst     46798000                       # number of ReadCleanReq MSHR miss cycles
system.l2.ReadCleanReq_mshr_miss_latency::total     46798000                       # number of ReadCleanReq MSHR miss cycles
system.l2.ReadCleanReq_mshr_miss_rate::.cpu.inst     0.951535                       # mshr miss rate for ReadCleanReq accesses
system.l2.ReadCleanReq_mshr_miss_rate::total     0.951535                       # mshr miss rate for ReadCleanReq accesses
system.l2.ReadCleanReq_avg_mshr_miss_latency::.cpu.inst 79453.310696                       # average ReadCleanReq mshr miss latency
system.l2.ReadCleanReq_avg_mshr_miss_latency::total 79453.310696                       # average ReadCleanReq mshr miss latency
system.l2.ReadSharedReq_hits::.cpu.data           139                       # number of ReadSharedReq hits
system.l2.ReadSharedReq_hits::total               139                       # number of ReadSharedReq hits
system.l2.ReadSharedReq_misses::.cpu.data          304                       # number of ReadSharedReq misses
system.l2.ReadSharedReq_misses::total             304                       # number of ReadSharedReq misses
system.l2.ReadSharedReq_miss_latency::.cpu.data     31837000                       # number of ReadSharedReq miss cycles
system.l2.ReadSharedReq_miss_latency::total     31837000                       # number of ReadSharedReq miss cycles
system.l2.ReadSharedReq_accesses::.cpu.data          443                       # number of ReadSharedReq accesses(hits+misses)
system.l2.ReadSharedReq_accesses::total           443                       # number of ReadSharedReq accesses(hits+misses)
system.l2.ReadSharedReq_miss_rate::.cpu.data     0.686230                       # miss rate for ReadSharedReq accesses
system.l2.ReadSharedReq_miss_rate::total     0.686230                       # miss rate for ReadSharedReq accesses
system.l2.ReadSharedReq_avg_miss_latency::.cpu.data 104726.973684                       # average ReadSharedReq miss latency
system.l2.ReadSharedReq_avg_miss_latency::total 104726.973684                       # average ReadSharedReq miss latency
system.l2.ReadSharedReq_mshr_hits::.cpu.data            6                       # number of ReadSharedReq MSHR hits
system.l2.ReadSharedReq_mshr_hits::total            6                       # number of ReadSharedReq MSHR hits
system.l2.ReadSharedReq_mshr_misses::.cpu.data          298                       # number of ReadSharedReq MSHR misses
system.l2.ReadSharedReq_mshr_misses::total          298                       # number of ReadSharedReq MSHR misses
system.l2.ReadSharedReq_mshr_miss_latency::.cpu.data     25170000                       # number of ReadSharedReq MSHR miss cycles
system.l2.ReadSharedReq_mshr_miss_latency::total     25170000                       # number of ReadSharedReq MSHR miss cycles
system.l2.ReadSharedReq_mshr_miss_rate::.cpu.data     0.672686                       # mshr miss rate for ReadSharedReq accesses
system.l2.ReadSharedReq_mshr_miss_rate::total     0.672686                       # mshr miss rate for ReadSharedReq accesses
system.l2.ReadSharedReq_avg_mshr_miss_latency::.cpu.data 84463.087248                       # average ReadSharedReq mshr miss latency
system.l2.ReadSharedReq_avg_mshr_miss_latency::total 84463.087248                       # average ReadSharedReq mshr miss latency
system.l2.power_state.pwrStateResidencyTicks::UNDEFINED 719686330000                       # Cumulative time (in ticks) in various power states
system.l2.tags.tagsinuse                  4079.267551                       # Cycle average of tags in use
system.l2.tags.total_refs                    10525525                       # Total number of references to valid blocks.
system.l2.tags.sampled_refs                  10522792                       # Sample count of references to valid blocks.
system.l2.tags.avg_refs                      1.000260                       # Average number of references to valid blocks.
system.l2.tags.warmup_cycle                     87000                       # Cycle when the warmup percentage was hit.
system.l2.tags.occ_blocks::.writebacks    2030.365428                       # Average occupied blocks per requestor
system.l2.tags.occ_blocks::.cpu.inst         2.365786                       # Average occupied blocks per requestor
system.l2.tags.occ_blocks::.cpu.data      2046.536337                       # Average occupied blocks per requestor
system.l2.tags.occ_percent::.writebacks      0.495695                       # Average percentage of cache occupancy
system.l2.tags.occ_percent::.cpu.inst        0.000578                       # Average percentage of cache occupancy
system.l2.tags.occ_percent::.cpu.data        0.499643                       # Average percentage of cache occupancy
system.l2.tags.occ_percent::total            0.995915                       # Average percentage of cache occupancy
system.l2.tags.occ_task_id_blocks::1024          4096                       # Occupied blocks per task id
system.l2.tags.age_task_id_blocks_1024::0          148                       # Occupied blocks per task id
system.l2.tags.age_task_id_blocks_1024::1         1327                       # Occupied blocks per task id
system.l2.tags.age_task_id_blocks_1024::2         2621                       # Occupied blocks per task id
system.l2.tags.occ_task_id_percent::1024            1                       # Percentage of cache occupancy per task id
system.l2.tags.tag_accesses                  31574190                       # Number of tag accesses
system.l2.tags.data_accesses                 31574190                       # Number of data accesses
system.l2.tags.power_state.pwrStateResidencyTicks::UNDEFINED 719686330000                       # Cumulative time (in ticks) in various power states
system.mem_ctrls.avgPriority_.writebacks::samples   5258955.00                       # Average QoS priority value for accepted requests
system.mem_ctrls.avgPriority_.cpu.inst::samples       589.00                       # Average QoS priority value for accepted requests
system.mem_ctrls.avgPriority_.cpu.data::samples   5263319.00                       # Average QoS priority value for accepted requests
system.mem_ctrls.priorityMinLatency      0.000000018750                       # per QoS priority minimum request to response latency (s)
system.mem_ctrls.priorityMaxLatency      0.010675436500                       # per QoS priority maximum request to response latency (s)
system.mem_ctrls.numReadWriteTurnArounds       328095                       # Number of turnarounds from READ to WRITE
system.mem_ctrls.numWriteReadTurnArounds       328095                       # Number of turnarounds from WRITE to READ
system.mem_ctrls.numStayReadState            15633079                       # Number of times bus staying in READ state
system.mem_ctrls.numStayWriteState            4938528                       # Number of times bus staying in WRITE state
system.mem_ctrls.readReqs                     5263910                       # Number of read requests accepted
system.mem_ctrls.writeReqs                    5258955                       # Number of write requests accepted
system.mem_ctrls.readBursts                   5263910                       # Number of controller read bursts, including those serviced by the write queue
system.mem_ctrls.writeBursts                  5258955                       # Number of controller write bursts, including those merged in the write queue
system.mem_ctrls.servicedByWrQ                      2                       # Number of controller read bursts serviced by the write queue
system.mem_ctrls.mergedWrBursts                     0                       # Number of controller write bursts merged with an existing one
system.mem_ctrls.neitherReadNorWriteReqs            0                       # Number of requests that are neither read nor write
system.mem_ctrls.avgRdQLen                       1.00                       # Average read queue length when enqueuing
system.mem_ctrls.avgWrQLen                      25.87                       # Average write queue length when enqueuing
system.mem_ctrls.numRdRetry                         0                       # Number of times read queue was full causing retry
system.mem_ctrls.numWrRetry                         0                       # Number of times write queue was full causing retry
system.mem_ctrls.readPktSize::0                     0                       # Read request sizes (log2)
system.mem_ctrls.readPktSize::1                     0                       # Read request sizes (log2)
system.mem_ctrls.readPktSize::2                     0                       # Read request sizes (log2)
system.mem_ctrls.readPktSize::3                     0                       # Read request sizes (log2)
system.mem_ctrls.readPktSize::4                     0                       # Read request sizes (log2)
system.mem_ctrls.readPktSize::5                     0                       # Read request sizes (log2)
system.mem_ctrls.readPktSize::6               5263910                       # Read request sizes (log2)
system.mem_ctrls.writePktSize::0                    0                       # Write request sizes (log2)
system.mem_ctrls.writePktSize::1                    0                       # Write request sizes (log2)
system.mem_ctrls.writePktSize::2                    0                       # Write request sizes (log2)
system.mem_ctrls.writePktSize::3                    0                       # Write request sizes (log2)
system.mem_ctrls.writePktSize::4                    0                       # Write request sizes (log2)
system.mem_ctrls.writePktSize::5                    0                       # Write request sizes (log2)
system.mem_ctrls.writePktSize::6              5258955                       # Write request sizes (log2)
system.mem_ctrls.rdQLenPdf::0                 5263666                       # What read queue length does an incoming req see
system.mem_ctrls.rdQLenPdf::1                     219                       # What read queue length does an incoming req see
system.mem_ctrls.rdQLenPdf::2                      22                       # What read queue length does an incoming req see
system.mem_ctrls.rdQLenPdf::3                       1                       # What read queue length does an incoming req see
system.mem_ctrls.rdQLenPdf::4                       0                       # What read queue length does an incoming req see
system.mem_ctrls.rdQLenPdf::5                       0                       # What read queue length does an incoming req see
system.mem_ctrls.rdQLenPdf::6                       0                       # What read queue length does an incoming req see
[...]
system.mem_ctrls.dram.bw_write::.writebacks    467666407                       # Write bandwidth from this memory (bytes/s)
system.mem_ctrls.dram.bw_write::total       467666407                       # Write bandwidth from this memory (bytes/s)
system.mem_ctrls.dram.bw_total::.writebacks    467666407                       # Total bandwidth to/from this memory (bytes/s)
system.mem_ctrls.dram.bw_total::.cpu.inst        52378                       # Total bandwidth to/from this memory (bytes/s)
system.mem_ctrls.dram.bw_total::.cpu.data    468054665                       # Total bandwidth to/from this memory (bytes/s)
system.mem_ctrls.dram.bw_total::total       935773450                       # Total bandwidth to/from this memory (bytes/s)
system.mem_ctrls.dram.readBursts              5263908                       # Number of DRAM read bursts
system.mem_ctrls.dram.writeBursts             5258937                       # Number of DRAM write bursts
system.mem_ctrls.dram.perBankRdBursts::0       328922                       # Per bank write bursts
system.mem_ctrls.dram.perBankRdBursts::1       329100                       # Per bank write bursts
system.mem_ctrls.dram.perBankRdBursts::2       329061                       # Per bank write bursts
system.mem_ctrls.dram.perBankRdBursts::3       329079                       # Per bank write bursts
system.mem_ctrls.dram.perBankRdBursts::4       328991                       # Per bank write bursts
system.mem_ctrls.dram.perBankRdBursts::5       329077                       # Per bank write bursts
system.mem_ctrls.dram.perBankRdBursts::6       329081                       # Per bank write bursts
system.mem_ctrls.dram.perBankRdBursts::7       329025                       # Per bank write bursts
system.mem_ctrls.dram.perBankRdBursts::8       328902                       # Per bank write bursts
system.mem_ctrls.dram.perBankRdBursts::9       328864                       # Per bank write bursts
system.mem_ctrls.dram.perBankRdBursts::10       328904                       # Per bank write bursts
system.mem_ctrls.dram.perBankRdBursts::11       328922                       # Per bank write bursts
system.mem_ctrls.dram.perBankRdBursts::12       329021                       # Per bank write bursts
system.mem_ctrls.dram.perBankRdBursts::13       329023                       # Per bank write bursts
system.mem_ctrls.dram.perBankRdBursts::14       328993                       # Per bank write bursts
system.mem_ctrls.dram.perBankRdBursts::15       328943                       # Per bank write bursts
system.mem_ctrls.dram.perBankWrBursts::0       328581                       # Per bank write bursts
system.mem_ctrls.dram.perBankWrBursts::1       328733                       # Per bank write bursts
system.mem_ctrls.dram.perBankWrBursts::2       328729                       # Per bank write bursts
system.mem_ctrls.dram.perBankWrBursts::3       328799                       # Per bank write bursts
system.mem_ctrls.dram.perBankWrBursts::4       328718                       # Per bank write bursts
system.mem_ctrls.dram.perBankWrBursts::5       328777                       # Per bank write bursts
system.mem_ctrls.dram.perBankWrBursts::6       328778                       # Per bank write bursts
system.mem_ctrls.dram.perBankWrBursts::7       328750                       # Per bank write bursts
system.mem_ctrls.dram.perBankWrBursts::8       328577                       # Per bank write bursts
system.mem_ctrls.dram.perBankWrBursts::9       328576                       # Per bank write bursts
system.mem_ctrls.dram.perBankWrBursts::10       328576                       # Per bank write bursts
system.mem_ctrls.dram.perBankWrBursts::11       328631                       # Per bank write bursts
system.mem_ctrls.dram.perBankWrBursts::12       328705                       # Per bank write bursts
system.mem_ctrls.dram.perBankWrBursts::13       328697                       # Per bank write bursts
system.mem_ctrls.dram.perBankWrBursts::14       328653                       # Per bank write bursts
system.mem_ctrls.dram.perBankWrBursts::15       328657                       # Per bank write bursts
system.mem_ctrls.dram.totQLat             66269758750                       # Total ticks spent queuing
system.mem_ctrls.dram.totBusLat           26319540000                       # Total ticks spent in databus transfers
system.mem_ctrls.dram.totMemAccLat       164968033750                       # Total ticks spent from burst creation until serviced by the DRAM
system.mem_ctrls.dram.avgQLat                12589.46                       # Average queueing delay per DRAM burst
system.mem_ctrls.dram.avgBusLat               5000.00                       # Average bus latency per DRAM burst
system.mem_ctrls.dram.avgMemAccLat           31339.46                       # Average memory access latency per DRAM burst
system.mem_ctrls.dram.readRowHits             4811320                       # Number of row buffer hits during reads
system.mem_ctrls.dram.writeRowHits            4884375                       # Number of row buffer hits during writes
system.mem_ctrls.dram.readRowHitRate            91.40                       # Row buffer hit rate for reads
system.mem_ctrls.dram.writeRowHitRate           92.88                       # Row buffer hit rate for writes
system.mem_ctrls.dram.bytesPerActivate::samples       827149                       # Bytes accessed per row activation
system.mem_ctrls.dram.bytesPerActivate::mean   814.196659                       # Bytes accessed per row activation
system.mem_ctrls.dram.bytesPerActivate::gmean   686.222993                       # Bytes accessed per row activation
system.mem_ctrls.dram.bytesPerActivate::stdev   320.671980                       # Bytes accessed per row activation
system.mem_ctrls.dram.bytesPerActivate::0-127        35973      4.35%      4.35% # Bytes accessed per row activation
system.mem_ctrls.dram.bytesPerActivate::128-255        48109      5.82%     10.17% # Bytes accessed per row activation
system.mem_ctrls.dram.bytesPerActivate::256-383        37171      4.49%     14.66% # Bytes accessed per row activation
system.mem_ctrls.dram.bytesPerActivate::384-511        39313      4.75%     19.41% # Bytes accessed per row activation
system.mem_ctrls.dram.bytesPerActivate::512-639        46271      5.59%     25.01% # Bytes accessed per row activation
system.mem_ctrls.dram.bytesPerActivate::640-767        33358      4.03%     29.04% # Bytes accessed per row activation
system.mem_ctrls.dram.bytesPerActivate::768-895        34383      4.16%     33.20% # Bytes accessed per row activation
system.mem_ctrls.dram.bytesPerActivate::896-1023        42320      5.12%     38.31% # Bytes accessed per row activation
system.mem_ctrls.dram.bytesPerActivate::1024-1151       510251     61.69%    100.00% # Bytes accessed per row activation
system.mem_ctrls.dram.bytesPerActivate::total       827149                       # Bytes accessed per row activation
system.mem_ctrls.dram.bytesRead             336890112                       # Total number of bytes read from DRAM
system.mem_ctrls.dram.bytesWritten          336571968                       # Total number of bytes written to DRAM
system.mem_ctrls.dram.avgRdBW              468.106865                       # Average DRAM read bandwidth in MiBytes/s
system.mem_ctrls.dram.avgWrBW              467.664806                       # Average DRAM write bandwidth in MiBytes/s
system.mem_ctrls.dram.peakBW                 12800.00                       # Theoretical peak bandwidth in MiByte/s
system.mem_ctrls.dram.busUtil                    7.31                       # Data bus utilization in percentage
system.mem_ctrls.dram.busUtilRead                3.66                       # Data bus utilization in percentage for reads
system.mem_ctrls.dram.busUtilWrite               3.65                       # Data bus utilization in percentage for writes
system.mem_ctrls.dram.pageHitRate               92.14                       # Row buffer hit rate, read and write combined
system.mem_ctrls.dram.power_state.pwrStateResidencyTicks::UNDEFINED 719686330000                       # Cumulative time (in ticks) in various power states
system.mem_ctrls.dram.rank0.actEnergy      2953646640                       # Energy for activate commands per rank (pJ)
system.mem_ctrls.dram.rank0.preEnergy      1569896625                       # Energy for precharge commands per rank (pJ)
system.mem_ctrls.dram.rank0.readEnergy    18794879040                       # Energy for read commands per rank (pJ)
system.mem_ctrls.dram.rank0.writeEnergy   13727895300                       # Energy for write commands per rank (pJ)
system.mem_ctrls.dram.rank0.refreshEnergy 56811175200.000008                       # Energy for refresh commands per rank (pJ)
system.mem_ctrls.dram.rank0.actBackEnergy 168812393580                       # Energy for active background per rank (pJ)
system.mem_ctrls.dram.rank0.preBackEnergy 134201745600                       # Energy for precharge background per rank (pJ)
system.mem_ctrls.dram.rank0.actPowerDownEnergy            0                       # Energy for active power-down per rank (pJ)
system.mem_ctrls.dram.rank0.prePowerDownEnergy            0                       # Energy for precharge power-down per rank (pJ)
system.mem_ctrls.dram.rank0.selfRefreshEnergy            0                       # Energy for self refresh per rank (pJ)
system.mem_ctrls.dram.rank0.totalEnergy  396871631985                       # Total energy per rank (pJ)
system.mem_ctrls.dram.rank0.averagePower   551.450841                       # Core power per rank (mW)
system.mem_ctrls.dram.rank0.totalIdleTime            0                       # Total Idle time Per DRAM Rank
system.mem_ctrls.dram.rank0.pwrStateTime::IDLE 344296109250                       # Time in different power states
system.mem_ctrls.dram.rank0.pwrStateTime::REF  24031800000                       # Time in different power states
system.mem_ctrls.dram.rank0.pwrStateTime::SREF            0                       # Time in different power states
system.mem_ctrls.dram.rank0.pwrStateTime::PRE_PDN            0                       # Time in different power states
system.mem_ctrls.dram.rank0.pwrStateTime::ACT 351358420750                       # Time in different power states
system.mem_ctrls.dram.rank0.pwrStateTime::ACT_PDN            0                       # Time in different power states
system.mem_ctrls.dram.rank1.actEnergy      2952204360                       # Energy for activate commands per rank (pJ)
system.mem_ctrls.dram.rank1.preEnergy      1569133830                       # Energy for precharge commands per rank (pJ)
system.mem_ctrls.dram.rank1.readEnergy    18789424080                       # Energy for read commands per rank (pJ)
system.mem_ctrls.dram.rank1.writeEnergy   13723755840                       # Energy for write commands per rank (pJ)
system.mem_ctrls.dram.rank1.refreshEnergy 56811175200.000008                       # Energy for refresh commands per rank (pJ)
system.mem_ctrls.dram.rank1.actBackEnergy 168006647850                       # Energy for active background per rank (pJ)
system.mem_ctrls.dram.rank1.preBackEnergy 134880268320                       # Energy for precharge background per rank (pJ)
system.mem_ctrls.dram.rank1.actPowerDownEnergy            0                       # Energy for active power-down per rank (pJ)
system.mem_ctrls.dram.rank1.prePowerDownEnergy            0                       # Energy for precharge power-down per rank (pJ)
system.mem_ctrls.dram.rank1.selfRefreshEnergy            0                       # Energy for self refresh per rank (pJ)
system.mem_ctrls.dram.rank1.totalEnergy  396732609480                       # Total energy per rank (pJ)
system.mem_ctrls.dram.rank1.averagePower   551.257670                       # Core power per rank (mW)
system.mem_ctrls.dram.rank1.totalIdleTime            0                       # Total Idle time Per DRAM Rank
system.mem_ctrls.dram.rank1.pwrStateTime::IDLE 346067285000                       # Time in different power states
system.mem_ctrls.dram.rank1.pwrStateTime::REF  24031800000                       # Time in different power states
system.mem_ctrls.dram.rank1.pwrStateTime::SREF            0                       # Time in different power states
system.mem_ctrls.dram.rank1.pwrStateTime::PRE_PDN            0                       # Time in different power states
system.mem_ctrls.dram.rank1.pwrStateTime::ACT 349587245000                       # Time in different power states
system.mem_ctrls.dram.rank1.pwrStateTime::ACT_PDN            0                       # Time in different power states
system.mem_ctrls.power_state.pwrStateResidencyTicks::UNDEFINED 719686330000                       # Cumulative time (in ticks) in various power states
system.membus.trans_dist::ReadResp                887                       # Transaction distribution
system.membus.trans_dist::WritebackDirty      5258955                       # Transaction distribution
system.membus.trans_dist::CleanEvict              264                       # Transaction distribution
system.membus.trans_dist::ReadExReq           5263023                       # Transaction distribution
system.membus.trans_dist::ReadExResp          5263023                       # Transaction distribution
system.membus.trans_dist::ReadSharedReq           887                       # Transaction distribution
system.membus.pkt_count_system.l2.mem_side_port::system.mem_ctrls.port     15787039                       # Packet count per connected requestor and responder (bytes)
system.membus.pkt_count::total               15787039                       # Packet count per connected requestor and responder (bytes)
system.membus.pkt_size_system.l2.mem_side_port::system.mem_ctrls.port    673463360                       # Cumulative packet size per connected requestor and responder (bytes)
system.membus.pkt_size::total               673463360                       # Cumulative packet size per connected requestor and responder (bytes)
system.membus.snoops                                0                       # Total snoops (count)
system.membus.snoopTraffic                          0                       # Total snoop traffic (bytes)
system.membus.snoop_fanout::samples           5263910                       # Request fanout histogram
system.membus.snoop_fanout::mean                    0                       # Request fanout histogram
system.membus.snoop_fanout::stdev                   0                       # Request fanout histogram
system.membus.snoop_fanout::underflows              0      0.00%      0.00% # Request fanout histogram
system.membus.snoop_fanout::0                 5263910    100.00%    100.00% # Request fanout histogram
system.membus.snoop_fanout::1                       0      0.00%    100.00% # Request fanout histogram
system.membus.snoop_fanout::overflows               0      0.00%    100.00% # Request fanout histogram
system.membus.snoop_fanout::min_value               0                       # Request fanout histogram
system.membus.snoop_fanout::max_value               0                       # Request fanout histogram
system.membus.snoop_fanout::total             5263910                       # Request fanout histogram
system.membus.power_state.pwrStateResidencyTicks::UNDEFINED 719686330000                       # Cumulative time (in ticks) in various power states
system.membus.reqLayer0.occupancy         31558949000                       # Layer occupancy (ticks)
system.membus.reqLayer0.utilization               4.4                       # Layer utilization (%)
system.membus.respLayer1.occupancy        27693432250                       # Layer occupancy (ticks)
system.membus.respLayer1.utilization              3.8                       # Layer utilization (%)
system.tol2bus.trans_dist::ReadResp              1062                       # Transaction distribution
system.tol2bus.trans_dist::WritebackDirty     10520166                       # Transaction distribution
system.tol2bus.trans_dist::WritebackClean           38                       # Transaction distribution
system.tol2bus.trans_dist::CleanEvict         5260056                       # Transaction distribution
system.tol2bus.trans_dist::ReadExReq          5263131                       # Transaction distribution
system.tol2bus.trans_dist::ReadExResp         5263131                       # Transaction distribution
system.tol2bus.trans_dist::ReadCleanReq           619                       # Transaction distribution
system.tol2bus.trans_dist::ReadSharedReq          443                       # Transaction distribution
system.tol2bus.pkt_count_system.cpu.icache.mem_side_port::system.l2.cpu_side_port         1276                       # Packet count per connected requestor and responder (bytes)
system.tol2bus.pkt_count_system.cpu.dcache.mem_side_port::system.l2.cpu_side_port     15788674                       # Packet count per connected requestor and responder (bytes)
system.tol2bus.pkt_count::total              15789950                       # Packet count per connected requestor and responder (bytes)
system.tol2bus.pkt_size_system.cpu.icache.mem_side_port::system.l2.cpu_side_port        42048                       # Cumulative packet size per connected requestor and responder (bytes)
system.tol2bus.pkt_size_system.cpu.dcache.mem_side_port::system.l2.cpu_side_port    673586176                       # Cumulative packet size per connected requestor and responder (bytes)
system.tol2bus.pkt_size::total              673628224                       # Cumulative packet size per connected requestor and responder (bytes)
system.tol2bus.snoops                        10518696                       # Total snoops (count)
system.tol2bus.snoopTraffic                 336573184                       # Total snoop traffic (bytes)
system.tol2bus.snoop_fanout::samples         15782889                       # Request fanout histogram
system.tol2bus.snoop_fanout::mean            0.333255                       # Request fanout histogram
system.tol2bus.snoop_fanout::stdev           0.471381                       # Request fanout histogram
system.tol2bus.snoop_fanout::underflows             0      0.00%      0.00% # Request fanout histogram
system.tol2bus.snoop_fanout::0               10523188     66.67%     66.67% # Request fanout histogram
system.tol2bus.snoop_fanout::1                5259670     33.33%    100.00% # Request fanout histogram
system.tol2bus.snoop_fanout::2                     31      0.00%    100.00% # Request fanout histogram
system.tol2bus.snoop_fanout::overflows              0      0.00%    100.00% # Request fanout histogram
system.tol2bus.snoop_fanout::min_value              0                       # Request fanout histogram
system.tol2bus.snoop_fanout::max_value              2                       # Request fanout histogram
system.tol2bus.snoop_fanout::total           15782889                       # Request fanout histogram
system.tol2bus.power_state.pwrStateResidencyTicks::UNDEFINED 719686330000                       # Cumulative time (in ticks) in various power states
system.tol2bus.reqLayer0.occupancy        21048253000                       # Layer occupancy (ticks)
system.tol2bus.reqLayer0.utilization              2.9                       # Layer utilization (%)
system.tol2bus.respLayer0.occupancy           1857999                       # Layer occupancy (ticks)
system.tol2bus.respLayer0.utilization             0.0                       # Layer utilization (%)
system.tol2bus.respLayer1.occupancy       15790728993                       # Layer occupancy (ticks)
system.tol2bus.respLayer1.utilization             2.2                       # Layer utilization (%)
system.voltage_domain.voltage                       1                       # Voltage in Volts

---------- End Simulation Statistics   ----------
