
---------- Begin Simulation Statistics ----------
final_tick                               705599398000                       # Number of ticks from beginning of simulation (restored from checkpoints and never reset)
host_inst_rate                                  79344                       # Simulator instruction rate (inst/s)
host_mem_usage                                 659092                       # Number of bytes of host memory used
host_op_rate                                   146166                       # Simulator op (including micro ops) rate (op/s)
host_seconds                                  1260.34                       # Real time elapsed on the host
host_tick_rate                              559847992                       # Simulator tick rate (ticks/s)
sim_freq                                 1000000000000                       # Frequency of simulated ticks
sim_insts                                   100000001                       # Number of instructions simulated
sim_ops                                     184218784                       # Number of ops (including micro ops) simulated
sim_seconds                                  0.705599                       # Number of seconds simulated
sim_ticks                                705599398000                       # Number of ticks simulated
system.cpu.committedInsts                   100000001                       # Number of instructions committed
system.cpu.committedOps                     184218784                       # Number of ops (including micro ops) committed
system.cpu.cpi                               7.055994                       # CPI: cycles per instruction
system.cpu.discardedOps                          4403                       # Number of ops (including micro ops) which were discarded before commit
system.cpu.idleCycles                       483907679                       # Total number of cycles that the object has spent stopped
system.cpu.ipc                               0.141723                       # IPC: instructions per cycle
system.cpu.numCycles                        705599398                       # number of cpu cycles simulated
system.cpu.numFetchSuspends                         0                       # Number of times Execute suspended instruction fetching
system.cpu.numWorkItemsCompleted                    0                       # number of work items this cpu completed
system.cpu.numWorkItemsStarted                      0                       # number of work items this cpu started
system.cpu.op_class_0::No_OpClass                   0      0.00%      0.00% # Class of committed instruction
system.cpu.op_class_0::IntAlu                97640468     53.00%     53.00% # Class of committed instruction
system.cpu.op_class_0::IntMult                 114702      0.06%     53.06% # Class of committed instruction
system.cpu.op_class_0::IntDiv                       0      0.00%     53.06% # Class of committed instruction
system.cpu.op_class_0::FloatAdd                     0      0.00%     53.06% # Class of committed instruction
system.cpu.op_class_0::FloatCmp                     0      0.00%     53.06% # Class of committed instruction
system.cpu.op_class_0::FloatCvt                     0      0.00%     53.06% # Class of committed instruction
system.cpu.op_class_0::FloatMult                    0      0.00%     53.06% # Class of committed instruction
system.cpu.op_class_0::FloatMultAcc                 0      0.00%     53.06% # Class of committed instruction
system.cpu.op_class_0::FloatDiv                     0      0.00%     53.06% # Class of committed instruction
system.cpu.op_class_0::FloatMisc                    0      0.00%     53.06% # Class of committed instruction
system.cpu.op_class_0::FloatSqrt                    0      0.00%     53.06% # Class of committed instruction
system.cpu.op_class_0::SimdAdd                      8      0.00%     53.06% # Class of committed instruction
system.cpu.op_class_0::SimdAddAcc                   0      0.00%     53.06% # Class of committed instruction
system.cpu.op_class_0::SimdAlu                     10      0.00%     53.06% # Class of committed instruction
system.cpu.op_class_0::SimdCmp                      8      0.00%     53.06% # Class of committed instruction
system.cpu.op_class_0::SimdCvt                      0      0.00%     53.06% # Class of committed instruction
system.cpu.op_class_0::SimdMisc                     1      0.00%     53.06% # Class of committed instruction
system.cpu.op_class_0::SimdMult                     0      0.00%     53.06% # Class of committed instruction
system.cpu.op_class_0::SimdMultAcc                  0      0.00%     53.06% # Class of committed instruction
system.cpu.op_class_0::SimdShift                    0      0.00%     53.06% # Class of committed instruction
system.cpu.op_class_0::SimdShiftAcc                 0      0.00%     53.06% # Class of committed instruction
system.cpu.op_class_0::SimdDiv                      0      0.00%     53.06% # Class of committed instruction
system.cpu.op_class_0::SimdSqrt                     0      0.00%     53.06% # Class of committed instruction
system.cpu.op_class_0::SimdFloatAdd                 0      0.00%     53.06% # Class of committed instruction
system.cpu.op_class_0::SimdFloatAlu                 0      0.00%     53.06% # Class of committed instruction
system.cpu.op_class_0::SimdFloatCmp                 0      0.00%     53.06% # Class of committed instruction
system.cpu.op_class_0::SimdFloatCvt                 0      0.00%     53.06% # Class of committed instruction
system.cpu.op_class_0::SimdFloatDiv                 0      0.00%     53.06% # Class of committed instruction
system.cpu.op_class_0::SimdFloatMisc               24      0.00%     53.06% # Class of committed instruction
system.cpu.op_class_0::SimdFloatMult                0      0.00%     53.06% # Class of committed instruction
system.cpu.op_class_0::SimdFloatMultAcc             0      0.00%     53.06% # Class of committed instruction
system.cpu.op_class_0::SimdFloatSqrt                0      0.00%     53.06% # Class of committed instruction
system.cpu.op_class_0::SimdReduceAdd                0      0.00%     53.06% # Class of committed instruction
system.cpu.op_class_0::SimdReduceAlu                0      0.00%     53.06% # Class of committed instruction
system.cpu.op_class_0::SimdReduceCmp                0      0.00%     53.06% # Class of committed instruction
system.cpu.op_class_0::SimdFloatReduceAdd            0      0.00%     53.06% # Class of committed instruction
system.cpu.op_class_0::SimdFloatReduceCmp            0      0.00%     53.06% # Class of committed instruction
system.cpu.op_class_0::SimdAes                      0      0.00%     53.06% # Class of committed instruction
system.cpu.op_class_0::SimdAesMix                   0      0.00%     53.06% # Class of committed instruction
system.cpu.op_class_0::SimdSha1Hash                 0      0.00%     53.06% # Class of committed instruction
system.cpu.op_class_0::SimdSha1Hash2                0      0.00%     53.06% # Class of committed instruction
system.cpu.op_class_0::SimdSha256Hash               0      0.00%     53.06% # Class of committed instruction
system.cpu.op_class_0::SimdSha256Hash2              0      0.00%     53.06% # Class of committed instruction
system.cpu.op_class_0::SimdShaSigma2                0      0.00%     53.06% # Class of committed instruction
system.cpu.op_class_0::SimdShaSigma3                0      0.00%     53.06% # Class of committed instruction
system.cpu.op_class_0::SimdPredAlu                  0      0.00%     53.06% # Class of committed instruction
system.cpu.op_class_0::MemRead                2082677      1.13%     54.20% # Class of committed instruction
system.cpu.op_class_0::MemWrite              84380886     45.80%    100.00% # Class of committed instruction
system.cpu.op_class_0::FloatMemRead                 0      0.00%    100.00% # Class of committed instruction
system.cpu.op_class_0::FloatMemWrite                0      0.00%    100.00% # Class of committed instruction
system.cpu.op_class_0::IprAccess                    0      0.00%    100.00% # Class of committed instruction
system.cpu.op_class_0::InstPrefetch                 0      0.00%    100.00% # Class of committed instruction
system.cpu.op_class_0::total                184218784                       # Class of committed instruction
system.cpu.tickCycles                       221691719                       # Number of cycles that the object actually ticked
system.cpu.workload.numSyscalls                    19                       # Number of system calls
system.membus.snoop_filter.hit_multi_requests            0                       # Number of requests hitting in the snoop filter with multiple (>1) holders of the requested data.
system.membus.snoop_filter.hit_multi_snoops            0                       # Number of snoops hitting in the snoop filter with multiple (>1) holders of the requested data.
system.membus.snoop_filter.hit_single_requests      5247140                       # Number of requests hitting in the snoop filter with a single holder of the requested data.
system.membus.snoop_filter.hit_single_snoops            0                       # Number of snoops hitting in the snoop filter with a single holder of the requested data.
system.membus.snoop_filter.tot_requests      10511023                       # Total number of requests made to the snoop filter.
system.membus.snoop_filter.tot_snoops               0                       # Total number of snoops made to the snoop filter.
system.tol2bus.snoop_filter.hit_multi_requests          623                       # Number of requests hitting in the snoop filter with multiple (>1) holders of the requested data.
system.tol2bus.snoop_filter.hit_multi_snoops            0                       # Number of snoops hitting in the snoop filter with multiple (>1) holders of the requested data.
system.tol2bus.snoop_filter.hit_single_requests      5269720                       # Number of requests hitting in the snoop filter with a single holder of the requested data.
system.tol2bus.snoop_filter.hit_single_snoops          480                       # Number of snoops hitting in the snoop filter with a single holder of the requested data.
system.tol2bus.snoop_filter.tot_requests     10540322                       # Total number of requests made to the snoop filter.
system.tol2bus.snoop_filter.tot_snoops            480                       # Total number of snoops made to the snoop filter.
system.clk_domain.clock                          1000                       # Clock period in ticks
system.cpu.branchPred.lookups                10658214                       # Number of BP lookups
system.cpu.branchPred.condPredicted          10649990                       # Number of conditional branches predicted
system.cpu.branchPred.condIncorrect              1451                       # Number of conditional branches incorrect
system.cpu.branchPred.BTBLookups             10650199                       # Number of BTB lookups
system.cpu.branchPred.BTBHits                10648844                       # Number of BTB hits
system.cpu.branchPred.BTBHitPct             99.987277                       # BTB Hit Percentage
system.cpu.branchPred.RASUsed                    2710                       # Number of times the RAS was used to get a target.
system.cpu.branchPred.RASIncorrect                  1                       # Number of incorrect RAS predictions.
system.cpu.branchPred.indirectLookups             192                       # Number of indirect predictor lookups.
system.cpu.branchPred.indirectHits                 19                       # Number of indirect target hits.
system.cpu.branchPred.indirectMisses              173                       # Number of indirect misses.
system.cpu.branchPred.indirectMispredicted          105                       # Number of mispredicted indirect branches.
system.cpu.dcache.demand_hits::.cpu.data     75850164                       # number of demand (read+write) hits
system.cpu.dcache.demand_hits::total         75850164                       # number of demand (read+write) hits
system.cpu.dcache.overall_hits::.cpu.data     75850200                       # number of overall hits
system.cpu.dcache.overall_hits::total        75850200                       # number of overall hits
system.cpu.dcache.demand_misses::.cpu.data     10530437                       # number of demand (read+write) misses
system.cpu.dcache.demand_misses::total       10530437                       # number of demand (read+write) misses
system.cpu.dcache.overall_misses::.cpu.data     10530472                       # number of overall misses
system.cpu.dcache.overall_misses::total      10530472                       # number of overall misses
system.cpu.dcache.demand_miss_latency::.cpu.data 1109458454999                       # number of demand (read+write) miss cycles
system.cpu.dcache.demand_miss_latency::total 1109458454999                       # number of demand (read+write) miss cycles
system.cpu.dcache.overall_miss_latency::.cpu.data 1109458454999                       # number of overall miss cycles
system.cpu.dcache.overall_miss_latency::total 1109458454999                       # number of overall miss cycles
system.cpu.dcache.demand_accesses::.cpu.data     86380601                       # number of demand (read+write) accesses
system.cpu.dcache.demand_accesses::total     86380601                       # number of demand (read+write) accesses
system.cpu.dcache.overall_accesses::.cpu.data     86380672                       # number of overall (read+write) accesses
system.cpu.dcache.overall_accesses::total     86380672                       # number of overall (read+write) accesses
system.cpu.dcache.demand_miss_rate::.cpu.data     0.121907                       # miss rate for demand accesses
system.cpu.dcache.demand_miss_rate::total     0.121907                       # miss rate for demand accesses
system.cpu.dcache.overall_miss_rate::.cpu.data     0.121908                       # miss rate for overall accesses
system.cpu.dcache.overall_miss_rate::total     0.121908                       # miss rate for overall accesses
system.cpu.dcache.demand_avg_miss_latency::.cpu.data 105357.304260                       # average overall miss latency
system.cpu.dcache.demand_avg_miss_latency::total 105357.304260                       # average overall miss latency
system.cpu.dcache.overall_avg_miss_latency::.cpu.data 105356.954085                       # average overall miss latency
system.cpu.dcache.overall_avg_miss_latency::total 105356.954085                       # average overall miss latency
system.cpu.dcache.blocked_cycles::no_mshrs          126                       # number of cycles access was blocked
system.cpu.dcache.blocked_cycles::no_targets            0                       # number of cycles access was blocked
system.cpu.dcache.blocked::no_mshrs                 2                       # number of cycles access was blocked
system.cpu.dcache.blocked::no_targets               0                       # number of cycles access was blocked
system.cpu.dcache.avg_blocked_cycles::no_mshrs           63                       # average number of cycles each access was blocked
system.cpu.dcache.avg_blocked_cycles::no_targets          nan                       # average number of cycles each access was blocked
system.cpu.dcache.writebacks::.writebacks      5266268                       # number of writebacks
system.cpu.dcache.writebacks::total           5266268                       # number of writebacks
system.cpu.dcache.demand_mshr_hits::.cpu.data      5260546                       # number of demand (read+write) MSHR hits
system.cpu.dcache.demand_mshr_hits::total      5260546                       # number of demand (read+write) MSHR hits
system.cpu.dcache.overall_mshr_hits::.cpu.data      5260546                       # number of overall MSHR hits
system.cpu.dcache.overall_mshr_hits::total      5260546                       # number of overall MSHR hits
system.cpu.dcache.demand_mshr_misses::.cpu.data      5269891                       # number of demand (read+write) MSHR misses
system.cpu.dcache.demand_mshr_misses::total      5269891                       # number of demand (read+write) MSHR misses
system.cpu.dcache.overall_mshr_misses::.cpu.data      5269923                       # number of overall MSHR misses
system.cpu.dcache.overall_mshr_misses::total      5269923                       # number of overall MSHR misses
system.cpu.dcache.demand_mshr_miss_latency::.cpu.data 541812520000                       # number of demand (read+write) MSHR miss cycles
system.cpu.dcache.demand_mshr_miss_latency::total 541812520000                       # number of demand (read+write) MSHR miss cycles
system.cpu.dcache.overall_mshr_miss_latency::.cpu.data 541815610000                       # number of overall MSHR miss cycles
system.cpu.dcache.overall_mshr_miss_latency::total 541815610000                       # number of overall MSHR miss cycles
system.cpu.dcache.demand_mshr_miss_rate::.cpu.data     0.061008                       # mshr miss rate for demand accesses
system.cpu.dcache.demand_mshr_miss_rate::total     0.061008                       # mshr miss rate for demand accesses
system.cpu.dcache.overall_mshr_miss_rate::.cpu.data     0.061008                       # mshr miss rate for overall accesses
system.cpu.dcache.overall_mshr_miss_rate::total     0.061008                       # mshr miss rate for overall accesses
system.cpu.dcache.demand_avg_mshr_miss_latency::.cpu.data 102812.851347                       # average overall mshr miss latency
system.cpu.dcache.demand_avg_mshr_miss_latency::total 102812.851347                       # average overall mshr miss latency
system.cpu.dcache.overall_avg_mshr_miss_latency::.cpu.data 102812.813394                       # average overall mshr miss latency
system.cpu.dcache.overall_avg_mshr_miss_latency::total 102812.813394                       # average overall mshr miss latency
system.cpu.dcache.replacements                5269411                       # number of replacements
system.cpu.dcache.ReadReq_hits::.cpu.data      2040315                       # number of ReadReq hits
system.cpu.dcache.ReadReq_hits::total         2040315                       # number of ReadReq hits
system.cpu.dcache.ReadReq_misses::.cpu.data         3694                       # number of ReadReq misses
system.cpu.dcache.ReadReq_misses::total          3694                       # number of ReadReq misses
system.cpu.dcache.ReadReq_miss_latency::.cpu.data    128699000                       # number of ReadReq miss cycles
system.cpu.dcache.ReadReq_miss_latency::total    128699000                       # number of ReadReq miss cycles
system.cpu.dcache.ReadReq_accesses::.cpu.data      2044009                       # number of ReadReq accesses(hits+misses)
system.cpu.dcache.ReadReq_accesses::total      2044009                       # number of ReadReq accesses(hits+misses)
system.cpu.dcache.ReadReq_miss_rate::.cpu.data     0.001807                       # miss rate for ReadReq accesses
system.cpu.dcache.ReadReq_miss_rate::total     0.001807                       # miss rate for ReadReq accesses
system.cpu.dcache.ReadReq_avg_miss_latency::.cpu.data 34840.010828                       # average ReadReq miss latency
system.cpu.dcache.ReadReq_avg_miss_latency::total 34840.010828                       # average ReadReq miss latency
system.cpu.dcache.ReadReq_mshr_hits::.cpu.data           38                       # number of ReadReq MSHR hits
system.cpu.dcache.ReadReq_mshr_hits::total           38                       # number of ReadReq MSHR hits
system.cpu.dcache.ReadReq_mshr_misses::.cpu.data         3656                       # number of ReadReq MSHR misses
system.cpu.dcache.ReadReq_mshr_misses::total         3656                       # number of ReadReq MSHR misses
system.cpu.dcache.ReadReq_mshr_miss_latency::.cpu.data    118367000                       # number of ReadReq MSHR miss cycles
system.cpu.dcache.ReadReq_mshr_miss_latency::total    118367000                       # number of ReadReq MSHR miss cycles
system.cpu.dcache.ReadReq_mshr_miss_rate::.cpu.data     0.001789                       # mshr miss rate for ReadReq accesses
system.cpu.dcache.ReadReq_mshr_miss_rate::total     0.001789                       # mshr miss rate for ReadReq accesses
system.cpu.dcache.ReadReq_avg_mshr_miss_latency::.cpu.data 32376.094092                       # average ReadReq mshr miss latency
system.cpu.dcache.ReadReq_avg_mshr_miss_latency::total 32376.094092                       # average ReadReq mshr miss latency
system.cpu.dcache.WriteReq_hits::.cpu.data     73809849                       # number of WriteReq hits
system.cpu.dcache.WriteReq_hits::total       73809849                       # number of WriteReq hits
system.cpu.dcache.WriteReq_misses::.cpu.data     10526743                       # number of WriteReq misses
system.cpu.dcache.WriteReq_misses::total     10526743                       # number of WriteReq misses
system.cpu.dcache.WriteReq_miss_latency::.cpu.data 1109329755999                       # number of WriteReq miss cycles
system.cpu.dcache.WriteReq_miss_latency::total 1109329755999                       # number of WriteReq miss cycles
system.cpu.dcache.WriteReq_accesses::.cpu.data     84336592                       # number of WriteReq accesses(hits+misses)
system.cpu.dcache.WriteReq_accesses::total     84336592                       # number of WriteReq accesses(hits+misses)
system.cpu.dcache.WriteReq_miss_rate::.cpu.data     0.124818                       # miss rate for WriteReq accesses
system.cpu.dcache.WriteReq_miss_rate::total     0.124818                       # miss rate for WriteReq accesses
system.cpu.dcache.WriteReq_avg_miss_latency::.cpu.data 105382.049889                       # average WriteReq miss latency
system.cpu.dcache.WriteReq_avg_miss_latency::total 105382.049889                       # average WriteReq miss latency
system.cpu.dcache.WriteReq_mshr_hits::.cpu.data      5260508                       # number of WriteReq MSHR hits
system.cpu.dcache.WriteReq_mshr_hits::total      5260508                       # number of WriteReq MSHR hits
system.cpu.dcache.WriteReq_mshr_misses::.cpu.data      5266235                       # number of WriteReq MSHR misses
system.cpu.dcache.WriteReq_mshr_misses::total      5266235                       # number of WriteReq MSHR misses
system.cpu.dcache.WriteReq_mshr_miss_latency::.cpu.data 541694153000                       # number of WriteReq MSHR miss cycles
system.cpu.dcache.WriteReq_mshr_miss_latency::total 541694153000                       # number of WriteReq MSHR miss cycles
system.cpu.dcache.WriteReq_mshr_miss_rate::.cpu.data     0.062443                       # mshr miss rate for WriteReq accesses
system.cpu.dcache.WriteReq_mshr_miss_rate::total     0.062443                       # mshr miss rate for WriteReq accesses
system.cpu.dcache.WriteReq_avg_mshr_miss_latency::.cpu.data 102861.750947                       # average WriteReq mshr miss latency
system.cpu.dcache.WriteReq_avg_mshr_miss_latency::total 102861.750947                       # average WriteReq mshr miss latency
system.cpu.dcache.SoftPFReq_hits::.cpu.data           36                       # number of SoftPFReq hits
system.cpu.dcache.SoftPFReq_hits::total            36                       # number of SoftPFReq hits
system.cpu.dcache.SoftPFReq_misses::.cpu.data           35                       # number of SoftPFReq misses
system.cpu.dcache.SoftPFReq_misses::total           35                       # number of SoftPFReq misses
system.cpu.dcache.SoftPFReq_accesses::.cpu.data           71                       # number of SoftPFReq accesses(hits+misses)
system.cpu.dcache.SoftPFReq_accesses::total           71                       # number of SoftPFReq accesses(hits+misses)
system.cpu.dcache.SoftPFReq_miss_rate::.cpu.data     0.492958                       # miss rate for SoftPFReq accesses
system.cpu.dcache.SoftPFReq_miss_rate::total     0.492958                       # miss rate for SoftPFReq accesses
system.cpu.dcache.SoftPFReq_mshr_misses::.cpu.data           32                       # number of SoftPFReq MSHR misses
system.cpu.dcache.SoftPFReq_mshr_misses::total           32                       # number of SoftPFReq MSHR misses
system.cpu.dcache.SoftPFReq_mshr_miss_latency::.cpu.data      3090000                       # number of SoftPFReq MSHR miss cycles
system.cpu.dcache.SoftPFReq_mshr_miss_latency::total      3090000                       # number of SoftPFReq MSHR miss cycles
system.cpu.dcache.SoftPFReq_mshr_miss_rate::.cpu.data     0.450704                       # mshr miss rate for SoftPFReq accesses
system.cpu.dcache.SoftPFReq_mshr_miss_rate::total     0.450704                       # mshr miss rate for SoftPFReq accesses
system.cpu.dcache.SoftPFReq_avg_mshr_miss_latency::.cpu.data 96562.500000                       # average SoftPFReq mshr miss latency
system.cpu.dcache.SoftPFReq_avg_mshr_miss_latency::total 96562.500000                       # average SoftPFReq mshr miss latency
system.cpu.dcache.LoadLockedReq_hits::.cpu.data           34                       # number of LoadLockedReq hits
system.cpu.dcache.LoadLockedReq_hits::total           34                       # number of LoadLockedReq hits
system.cpu.dcache.LoadLockedReq_accesses::.cpu.data           34                       # number of LoadLockedReq accesses(hits+misses)
system.cpu.dcache.LoadLockedReq_accesses::total           34                       # number of LoadLockedReq accesses(hits+misses)
system.cpu.dcache.StoreCondReq_hits::.cpu.data           34                       # number of StoreCondReq hits
system.cpu.dcache.StoreCondReq_hits::total           34                       # number of StoreCondReq hits
system.cpu.dcache.StoreCondReq_accesses::.cpu.data           34                       # number of StoreCondReq accesses(hits+misses)
system.cpu.dcache.StoreCondReq_accesses::total           34                       # number of StoreCondReq accesses(hits+misses)
system.cpu.dcache.power_state.pwrStateResidencyTicks::UNDEFINED 705599398000                       # Cumulative time (in ticks) in various power states
system.cpu.dcache.tags.tagsinuse           511.876412                       # Cycle average of tags in use
system.cpu.dcache.tags.total_refs            81120191                       # Total number of references to valid blocks.
system.cpu.dcache.tags.sampled_refs           5269923                       # Sample count of references to valid blocks.
system.cpu.dcache.tags.avg_refs             15.393051                       # Average number of references to valid blocks.
system.cpu.dcache.tags.warmup_cycle            223000                       # Cycle when the warmup percentage was hit.
system.cpu.dcache.tags.occ_blocks::.cpu.data   511.876412                       # Average occupied blocks per requestor
system.cpu.dcache.tags.occ_percent::.cpu.data     0.999759                       # Average percentage of cache occupancy
system.cpu.dcache.tags.occ_percent::total     0.999759                       # Average percentage of cache occupancy
system.cpu.dcache.tags.occ_task_id_blocks::1024          512                       # Occupied blocks per task id
system.cpu.dcache.tags.age_task_id_blocks_1024::0           75                       # Occupied blocks per task id
system.cpu.dcache.tags.age_task_id_blocks_1024::1          437                       # Occupied blocks per task id
system.cpu.dcache.tags.occ_task_id_percent::1024            1                       # Percentage of cache occupancy per task id
system.cpu.dcache.tags.tag_accesses          91650663                       # Number of tag accesses
system.cpu.dcache.tags.data_accesses         91650663                       # Number of data accesses
system.cpu.dcache.tags.power_state.pwrStateResidencyTicks::UNDEFINED 705599398000                       # Cumulative time (in ticks) in various power states
system.cpu.dtb.instHits                             0                       # ITB inst hits
system.cpu.dtb.instMisses                           0                       # ITB inst misses
system.cpu.dtb.readHits                             0                       # DTB read hits
system.cpu.dtb.readMisses                           0                       # DTB read misses
system.cpu.dtb.writeHits                            0                       # DTB write hits
system.cpu.dtb.writeMisses                          0                       # DTB write misses
system.cpu.dtb.inserts                              0                       # Number of times an entry is inserted into the TLB
system.cpu.dtb.flushTlb                             0                       # Number of times complete TLB was flushed
system.cpu.dtb.flushTlbMva                          0                       # Number of times TLB was flushed by MVA
system.cpu.dtb.flushTlbMvaAsid                      0                       # Number of times TLB was flushed by MVA & ASID
system.cpu.dtb.flushTlbAsid                         0                       # Number of times TLB was flushed by ASID
system.cpu.dtb.flushedEntries                       0                       # Number of entries that have been flushed from TLB
system.cpu.dtb.alignFaults                          0                       # Number of TLB faults due to alignment restrictions
system.cpu.dtb.prefetchFaults                       0                       # Number of TLB faults due to prefetch
system.cpu.dtb.domainFaults                         0                       # Number of TLB faults due to domain restrictions
system.cpu.dtb.permsFaults                          0                       # Number of TLB faults due to permissions restrictions
system.cpu.dtb.readAccesses                         0                       # DTB read accesses
system.cpu.dtb.writeAccesses                        0                       # DTB write accesses
system.cpu.dtb.instAccesses                         0                       # ITB inst accesses
system.cpu.dtb.hits                                 0                       # Total TLB (inst and data) hits
system.cpu.dtb.misses                               0                       # Total TLB (inst and data) misses
system.cpu.dtb.accesses                             0                       # Total TLB (inst and data) accesses
system.cpu.dtb.stage2_mmu.stage2_tlb.instHits            0                       # ITB inst hits
system.cpu.dtb.stage2_mmu.stage2_tlb.instMisses            0                       # ITB inst misses
system.cpu.dtb.stage2_mmu.stage2_tlb.readHits            0                       # DTB read hits
system.cpu.dtb.stage2_mmu.stage2_tlb.readMisses            0                       # DTB read misses
system.cpu.dtb.stage2_mmu.stage2_tlb.writeHits            0                       # DTB write hits
system.cpu.dtb.stage2_mmu.stage2_tlb.writeMisses            0                       # DTB write misses
system.cpu.dtb.stage2_mmu.stage2_tlb.inserts            0                       # Number of times an entry is inserted into the TLB
system.cpu.dtb.stage2_mmu.stage2_tlb.flushTlb            0                       # Number of times complete TLB was flushed
system.cpu.dtb.stage2_mmu.stage2_tlb.flushTlbMva            0                       # Number of times TLB was flushed by MVA
system.cpu.dtb.stage2_mmu.stage2_tlb.flushTlbMvaAsid            0                       # Number of times TLB was flushed by MVA & ASID
system.cpu.dtb.stage2_mmu.stage2_tlb.flushTlbAsid            0                       # Number of times TLB was flushed by ASID
system.cpu.dtb.stage2_mmu.stage2_tlb.flushedEntries            0                       # Number of entries that have been flushed from TLB
system.cpu.dtb.stage2_mmu.stage2_tlb.alignFaults            0                       # Number of TLB faults due to alignment restrictions
system.cpu.dtb.stage2_mmu.stage2_tlb.prefetchFaults            0                       # Number of TLB faults due to prefetch
system.cpu.dtb.stage2_mmu.stage2_tlb.domainFaults            0                       # Number of TLB faults due to domain restrictions
system.cpu.dtb.stage2_mmu.stage2_tlb.permsFaults            0                       # Number of TLB faults due to permissions restrictions
system.cpu.dtb.stage2_mmu.stage2_tlb.readAccesses            0                       # DTB read accesses
system.cpu.dtb.stage2_mmu.stage2_tlb.writeAccesses            0                       # DTB write accesses
system.cpu.dtb.stage2_mmu.stage2_tlb.instAccesses            0                       # ITB inst accesses
system.cpu.dtb.stage2_mmu.stage2_tlb.hits            0                       # Total TLB (inst and data) hits
system.cpu.dtb.stage2_mmu.stage2_tlb.misses            0                       # Total TLB (inst and data) misses
system.cpu.dtb.stage2_mmu.stage2_tlb.accesses            0                       # Total TLB (inst and data) accesses
system.cpu.dtb.stage2_mmu.stage2_tlb.walker.walks            0                       # Table walker walks requested
system.cpu.dtb.stage2_mmu.stage2_tlb.walker.requestOrigin_Requested::Data            0                       # Table walker requests started/completed, data/inst
system.cpu.dtb.stage2_mmu.stage2_tlb.walker.requestOrigin_Requested::Inst            0                       # Table walker requests started/completed, data/inst
system.cpu.dtb.stage2_mmu.stage2_tlb.walker.requestOrigin_Requested::total            0                       # Table walker requests started/completed, data/inst
system.cpu.dtb.stage2_mmu.stage2_tlb.walker.requestOrigin_Completed::Data            0                       # Table walker requests started/completed, data/inst
system.cpu.dtb.stage2_mmu.stage2_tlb.walker.requestOrigin_Completed::Inst            0                       # Table walker requests started/completed, data/inst
system.cpu.dtb.stage2_mmu.stage2_tlb.walker.requestOrigin_Completed::total            0                       # Table walker requests started/completed, data/inst
system.cpu.dtb.stage2_mmu.stage2_tlb.walker.requestOrigin::total            0                       # Table walker requests started/completed, data/inst
system.cpu.dtb.stage2_mmu.stage2_tlb.walker.power_state.pwrStateResidencyTicks::UNDEFINED 705599398000                       # Cumulative time (in ticks) in various power states
system.cpu.dtb.walker.walks                         0                       # Table walker walks requested
system.cpu.dtb.walker.requestOrigin_Requested::Data            0                       # Table walker requests started/completed, data/inst
system.cpu.dtb.walker.requestOrigin_Requested::Inst            0                       # Table walker requests started/completed, data/inst
system.cpu.dtb.walker.requestOrigin_Requested::total            0                       # Table walker requests started/completed, data/inst
system.cpu.dtb.walker.requestOrigin_Completed::Data            0                       # Table walker requests started/completed, data/inst
system.cpu.dtb.walker.requestOrigin_Completed::Inst            0                       # Table walker requests started/completed, data/inst
system.cpu.dtb.walker.requestOrigin_Completed::total            0                       # Table walker requests started/completed, data/inst
system.cpu.dtb.walker.requestOrigin::total            0                       # Table walker requests started/completed, data/inst
system.cpu.dtb.walker.power_state.pwrStateResidencyTicks::UNDEFINED 705599398000                       # Cumulative time (in ticks) in various power states
system.cpu.fetch2.intInstructions            45070939                       # Number of integer instructions successfully decoded
system.cpu.fetch2.fpInstructions                    0                       # Number of floating point instructions successfully decoded
system.cpu.fetch2.vecInstructions                   0                       # Number of SIMD instructions successfully decoded
system.cpu.fetch2.loadInstructions            2086385                       # Number of memory load instructions successfully decoded
system.cpu.fetch2.storeInstructions            169100                       # Number of memory store instructions successfully decoded
system.cpu.fetch2.amoInstructions                   0                       # Number of memory atomic instructions successfully decoded
system.cpu.icache.demand_hits::.cpu.inst     32144733                       # number of demand (read+write) hits
system.cpu.icache.demand_hits::total         32144733                       # number of demand (read+write) hits
system.cpu.icache.overall_hits::.cpu.inst     32144733                       # number of overall hits
system.cpu.icache.overall_hits::total        32144733                       # number of overall hits
system.cpu.icache.demand_misses::.cpu.inst          679                       # number of demand (read+write) misses
system.cpu.icache.demand_misses::total            679                       # number of demand (read+write) misses
system.cpu.icache.overall_misses::.cpu.inst          679                       # number of overall misses
system.cpu.icache.overall_misses::total           679                       # number of overall misses
system.cpu.icache.demand_miss_latency::.cpu.inst     65061000                       # number of demand (read+write) miss cycles
system.cpu.icache.demand_miss_latency::total     65061000                       # number of demand (read+write) miss cycles
system.cpu.icache.overall_miss_latency::.cpu.inst     65061000                       # number of overall miss cycles
system.cpu.icache.overall_miss_latency::total     65061000                       # number of overall miss cycles
system.cpu.icache.demand_accesses::.cpu.inst     32145412                       # number of demand (read+write) accesses
system.cpu.icache.demand_accesses::total     32145412                       # number of demand (read+write) accesses
system.cpu.icache.overall_accesses::.cpu.inst     32145412                       # number of overall (read+write) accesses
system.cpu.icache.overall_accesses::total     32145412                       # number of overall (read+write) accesses
system.cpu.icache.demand_miss_rate::.cpu.inst     0.000021                       # miss rate for demand accesses
system.cpu.icache.demand_miss_rate::total     0.000021                       # miss rate for demand accesses
system.cpu.icache.overall_miss_rate::.cpu.inst     0.000021                       # miss rate for overall accesses
system.cpu.icache.overall_miss_rate::total     0.000021                       # miss rate for overall accesses
system.cpu.icache.demand_avg_miss_latency::.cpu.inst 95818.851252                       # average overall miss latency
system.cpu.icache.demand_avg_miss_latency::total 95818.851252                       # average overall miss latency
system.cpu.icache.overall_avg_miss_latency::.cpu.inst 95818.851252                       # average overall miss latency
system.cpu.icache.overall_avg_miss_latency::total 95818.851252                       # average overall miss latency
system.cpu.icache.blocked_cycles::no_mshrs            0                       # number of cycles access was blocked
system.cpu.icache.blocked_cycles::no_targets            0                       # number of cycles access was blocked
system.cpu.icache.blocked::no_mshrs                 0                       # number of cycles access was blocked
system.cpu.icache.blocked::no_targets               0                       # number of cycles access was blocked
system.cpu.icache.avg_blocked_cycles::no_mshrs          nan                       # average number of cycles each access was blocked
system.cpu.icache.avg_blocked_cycles::no_targets          nan                       # average number of cycles each access was blocked
system.cpu.icache.writebacks::.writebacks          309                       # number of writebacks
system.cpu.icache.writebacks::total               309                       # number of writebacks
system.cpu.icache.demand_mshr_misses::.cpu.inst          679                       # number of demand (read+write) MSHR misses
system.cpu.icache.demand_mshr_misses::total          679                       # number of demand (read+write) MSHR misses
system.cpu.icache.overall_mshr_misses::.cpu.inst          679                       # number of overall MSHR misses
system.cpu.icache.overall_mshr_misses::total          679                       # number of overall MSHR misses
system.cpu.icache.demand_mshr_miss_latency::.cpu.inst     63703000                       # number of demand (read+write) MSHR miss cycles
system.cpu.icache.demand_mshr_miss_latency::total     63703000                       # number of demand (read+write) MSHR miss cycles
system.cpu.icache.overall_mshr_miss_latency::.cpu.inst     63703000                       # number of overall MSHR miss cycles
system.cpu.icache.overall_mshr_miss_latency::total     63703000                       # number of overall MSHR miss cycles
system.cpu.icache.demand_mshr_miss_rate::.cpu.inst     0.000021                       # mshr miss rate for demand accesses
system.cpu.icache.demand_mshr_miss_rate::total     0.000021                       # mshr miss rate for demand accesses
system.cpu.icache.overall_mshr_miss_rate::.cpu.inst     0.000021                       # mshr miss rate for overall accesses
system.cpu.icache.overall_mshr_miss_rate::total     0.000021                       # mshr miss rate for overall accesses
system.cpu.icache.demand_avg_mshr_miss_latency::.cpu.inst 93818.851252                       # average overall mshr miss latency
system.cpu.icache.demand_avg_mshr_miss_latency::total 93818.851252                       # average overall mshr miss latency
system.cpu.icache.overall_avg_mshr_miss_latency::.cpu.inst 93818.851252                       # average overall mshr miss latency
system.cpu.icache.overall_avg_mshr_miss_latency::total 93818.851252                       # average overall mshr miss latency
system.cpu.icache.replacements                    309                       # number of replacements
system.cpu.icache.ReadReq_hits::.cpu.inst     32144733                       # number of ReadReq hits
system.cpu.icache.ReadReq_hits::total        32144733                       # number of ReadReq hits
system.cpu.icache.ReadReq_misses::.cpu.inst          679                       # number of ReadReq misses
system.cpu.icache.ReadReq_misses::total           679                       # number of ReadReq misses
system.cpu.icache.ReadReq_miss_latency::.cpu.inst     65061000                       # number of ReadReq miss cycles
system.cpu.icache.ReadReq_miss_latency::total     65061000                       # number of ReadReq miss cycles
system.cpu.icache.ReadReq_accesses::.cpu.inst     32145412                       # number of ReadReq accesses(hits+misses)
system.cpu.icache.ReadReq_accesses::total     32145412                       # number of ReadReq accesses(hits+misses)
system.cpu.icache.ReadReq_miss_rate::.cpu.inst     0.000021                       # miss rate for ReadReq accesses
system.cpu.icache.ReadReq_miss_rate::total     0.000021                       # miss rate for ReadReq accesses
system.cpu.icache.ReadReq_avg_miss_latency::.cpu.inst 95818.851252                       # average ReadReq miss latency
system.cpu.icache.ReadReq_avg_miss_latency::total 95818.851252                       # average ReadReq miss latency
system.cpu.icache.ReadReq_mshr_misses::.cpu.inst          679                       # number of ReadReq MSHR misses
system.cpu.icache.ReadReq_mshr_misses::total          679                       # number of ReadReq MSHR misses
system.cpu.icache.ReadReq_mshr_miss_latency::.cpu.inst     63703000                       # number of ReadReq MSHR miss cycles
system.cpu.icache.ReadReq_mshr_miss_latency::total     63703000                       # number of ReadReq MSHR miss cycles
system.cpu.icache.ReadReq_mshr_miss_rate::.cpu.inst     0.000021                       # mshr miss rate for ReadReq accesses
system.cpu.icache.ReadReq_mshr_miss_rate::total     0.000021                       # mshr miss rate for ReadReq accesses
system.cpu.icache.ReadReq_avg_mshr_miss_latency::.cpu.inst 93818.851252                       # average ReadReq mshr miss latency
system.cpu.icache.ReadReq_avg_mshr_miss_latency::total 93818.851252                       # average ReadReq mshr miss latency
system.cpu.icache.power_state.pwrStateResidencyTicks::UNDEFINED 705599398000                       # Cumulative time (in ticks) in various power states
system.cpu.icache.tags.tagsinuse           323.924080                       # Cycle average of tags in use
system.cpu.icache.tags.total_refs            32145412                       # Total number of references to valid blocks.
system.cpu.icache.tags.sampled_refs               679                       # Sample count of references to valid blocks.
system.cpu.icache.tags.avg_refs          47342.285714                       # Average number of references to valid blocks.
system.cpu.icache.tags.warmup_cycle            108000                       # Cycle when the warmup percentage was hit.
system.cpu.icache.tags.occ_blocks::.cpu.inst   323.924080                       # Average occupied blocks per requestor
system.cpu.icache.tags.occ_percent::.cpu.inst     0.632664                       # Average percentage of cache occupancy
system.cpu.icache.tags.occ_percent::total     0.632664                       # Average percentage of cache occupancy
system.cpu.icache.tags.occ_task_id_blocks::1024          370                       # Occupied blocks per task id
system.cpu.icache.tags.age_task_id_blocks_1024::4          370                       # Occupied blocks per task id
system.cpu.icache.tags.occ_task_id_percent::1024     0.722656                       # Percentage of cache occupancy per task id
system.cpu.icache.tags.tag_accesses          32146091                       # Number of tag accesses
system.cpu.icache.tags.data_accesses         32146091                       # Number of data accesses
system.cpu.icache.tags.power_state.pwrStateResidencyTicks::UNDEFINED 705599398000                       # Cumulative time (in ticks) in various power states
system.cpu.itb.instHits                             0                       # ITB inst hits
system.cpu.itb.instMisses                           0                       # ITB inst misses
system.cpu.itb.readHits                             0                       # DTB read hits
system.cpu.itb.readMisses                           0                       # DTB read misses
system.cpu.itb.writeHits                            0                       # DTB write hits
system.cpu.itb.writeMisses                          0                       # DTB write misses
system.cpu.itb.inserts                              0                       # Number of times an entry is inserted into the TLB
system.cpu.itb.flushTlb                             0                       # Number of times complete TLB was flushed
system.cpu.itb.flushTlbMva                          0                       # Number of times TLB was flushed by MVA
system.cpu.itb.flushTlbMvaAsid                      0                       # Number of times TLB was flushed by MVA & ASID
system.cpu.itb.flushTlbAsid                         0                       # Number of times TLB was flushed by ASID
system.cpu.itb.flushedEntries                       0                       # Number of entries that have been flushed from TLB
system.cpu.itb.alignFaults                          0                       # Number of TLB faults due to alignment restrictions
system.cpu.itb.prefetchFaults                       0                       # Number of TLB faults due to prefetch
system.cpu.itb.domainFaults                         0                       # Number of TLB faults due to domain restrictions
system.cpu.itb.permsFaults                          0                       # Number of TLB faults due to permissions restrictions
system.cpu.itb.readAccesses                         0                       # DTB read accesses
system.cpu.itb.writeAccesses                        0                       # DTB write accesses
system.cpu.itb.instAccesses                         0                       # ITB inst accesses
system.cpu.itb.hits                                 0                       # Total TLB (inst and data) hits
system.cpu.itb.misses                               0                       # Total TLB (inst and data) misses
system.cpu.itb.accesses                             0                       # Total TLB (inst and data) accesses
system.cpu.itb.stage2_mmu.stage2_tlb.instHits            0                       # ITB inst hits
system.cpu.itb.stage2_mmu.stage2_tlb.instMisses            0                       # ITB inst misses
system.cpu.itb.stage2_mmu.stage2_tlb.readHits            0                       # DTB read hits
system.cpu.itb.stage2_mmu.stage2_tlb.readMisses            0                       # DTB read misses
system.cpu.itb.stage2_mmu.stage2_tlb.writeHits            0                       # DTB write hits
system.cpu.itb.stage2_mmu.stage2_tlb.writeMisses            0                       # DTB write misses
system.cpu.itb.stage2_mmu.stage2_tlb.inserts            0                       # Number of times an entry is inserted into the TLB
system.cpu.itb.stage2_mmu.stage2_tlb.flushTlb            0                       # Number of times complete TLB was flushed
system.cpu.itb.stage2_mmu.stage2_tlb.flushTlbMva            0                       # Number of times TLB was flushed by MVA
system.cpu.itb.stage2_mmu.stage2_tlb.flushTlbMvaAsid            0                       # Number of times TLB was flushed by MVA & ASID
system.cpu.itb.stage2_mmu.stage2_tlb.flushTlbAsid            0                       # Number of times TLB was flushed by ASID
system.cpu.itb.stage2_mmu.stage2_tlb.flushedEntries            0                       # Number of entries that have been flushed from TLB
system.cpu.itb.stage2_mmu.stage2_tlb.alignFaults            0                       # Number of TLB faults due to alignment restrictions
system.cpu.itb.stage2_mmu.stage2_tlb.prefetchFaults            0                       # Number of TLB faults due to prefetch
system.cpu.itb.stage2_mmu.stage2_tlb.domainFaults            0                       # Number of TLB faults due to domain restrictions
system.cpu.itb.stage2_mmu.stage2_tlb.permsFaults            0                       # Number of TLB faults due to permissions restrictions
system.cpu.itb.stage2_mmu.stage2_tlb.readAccesses            0                       # DTB read accesses
system.cpu.itb.stage2_mmu.stage2_tlb.writeAccesses            0                       # DTB write accesses
system.cpu.itb.stage2_mmu.stage2_tlb.instAccesses            0                       # ITB inst accesses
system.cpu.itb.stage2_mmu.stage2_tlb.hits            0                       # Total TLB (inst and data) hits
system.cpu.itb.stage2_mmu.stage2_tlb.misses            0                       # Total TLB (inst and data) misses
system.cpu.itb.stage2_mmu.stage2_tlb.accesses            0                       # Total TLB (inst and data) accesses
system.cpu.itb.stage2_mmu.stage2_tlb.walker.walks            0                       # Table walker walks requested
system.cpu.itb.stage2_mmu.stage2_tlb.walker.requestOrigin_Requested::Data            0                       # Table walker requests started/completed, data/inst
system.cpu.itb.stage2_mmu.stage2_tlb.walker.requestOrigin_Requested::Inst            0                       # Table walker requests started/completed, data/inst
system.cpu.itb.stage2_mmu.stage2_tlb.walker.requestOrigin_Requested::total            0                       # Table walker requests started/completed, data/inst
system.cpu.itb.stage2_mmu.stage2_tlb.walker.requestOrigin_Completed::Data            0                       # Table walker requests started/completed, data/inst
system.cpu.itb.stage2_mmu.stage2_tlb.walker.requestOrigin_Completed::Inst            0                       # Table walker requests started/completed, data/inst
system.cpu.itb.stage2_mmu.stage2_tlb.walker.requestOrigin_Completed::total            0                       # Table walker requests started/completed, data/inst
system.cpu.itb.stage2_mmu.stage2_tlb.walker.requestOrigin::total            0                       # Table walker requests started/completed, data/inst
system.cpu.itb.stage2_mmu.stage2_tlb.walker.power_state.pwrStateResidencyTicks::UNDEFINED 705599398000                       # Cumulative time (in ticks) in various power states
system.cpu.itb.walker.walks                         0                       # Table walker walks requested
system.cpu.itb.walker.requestOrigin_Requested::Data            0                       # Table walker requests started/completed, data/inst
system.cpu.itb.walker.requestOrigin_Requested::Inst            0                       # Table walker requests started/completed, data/inst
system.cpu.itb.walker.requestOrigin_Requested::total            0                       # Table walker requests started/completed, data/inst
system.cpu.itb.walker.requestOrigin_Completed::Data            0                       # Table walker requests started/completed, data/inst
system.cpu.itb.walker.requestOrigin_Completed::Inst            0                       # Table walker requests started/completed, data/inst
system.cpu.itb.walker.requestOrigin_Completed::total            0                       # Table walker requests started/completed, data/inst
system.cpu.itb.walker.requestOrigin::total            0                       # Table walker requests started/completed, data/inst
system.cpu.itb.walker.power_state.pwrStateResidencyTicks::UNDEFINED 705599398000                       # Cumulative time (in ticks) in various power states
system.cpu.power_state.pwrStateResidencyTicks::ON 705599398000                       # Cumulative time (in ticks) in various power states
system.cpu.thread_0.numInsts                100000001                       # Number of Instructions committed
system.cpu.thread_0.numOps                  184218784                       # Number of Ops committed
system.cpu.thread_0.numMemRefs                      0                       # Number of Memory References
system.cpu_clk_domain.clock                      1000                       # Clock period in ticks
system.cpu_voltage_domain.voltage                   1                       # Voltage in Volts
system.l2.demand_hits::.cpu.inst                   88                       # number of demand (read+write) hits
system.l2.demand_hits::.cpu.data                 6614                       # number of demand (read+write) hits
system.l2.demand_hits::total                     6702                       # number of demand (read+write) hits
system.l2.overall_hits::.cpu.inst                  88                       # number of overall hits
system.l2.overall_hits::.cpu.data                6614                       # number of overall hits
system.l2.overall_hits::total                    6702                       # number of overall hits
system.l2.demand_misses::.cpu.inst                591                       # number of demand (read+write) misses
system.l2.demand_misses::.cpu.data            5263309                       # number of demand (read+write) misses
system.l2.demand_misses::total                5263900                       # number of demand (read+write) misses
system.l2.overall_misses::.cpu.inst               591                       # number of overall misses
system.l2.overall_misses::.cpu.data           5263309                       # number of overall misses
system.l2.overall_misses::total               5263900                       # number of overall misses
system.l2.demand_miss_latency::.cpu.inst     59767000                       # number of demand (read+write) miss cycles
system.l2.demand_miss_latency::.cpu.data 525846938000                       # number of demand (read+write) miss cycles
system.l2.demand_miss_latency::total     525906705000                       # number of demand (read+write) miss cycles
system.l2.overall_miss_latency::.cpu.inst     59767000                       # number of overall miss cycles
system.l2.overall_miss_latency::.cpu.data 525846938000                       # number of overall miss cycles
system.l2.overall_miss_latency::total    525906705000                       # number of overall miss cycles
system.l2.demand_accesses::.cpu.inst              679                       # number of demand (read+write) accesses
system.l2.demand_accesses::.cpu.data          5269923                       # number of demand (read+write) accesses
system.l2.demand_accesses::total              5270602                       # number of demand (read+write) accesses
system.l2.overall_accesses::.cpu.inst             679                       # number of overall (read+write) accesses
system.l2.overall_accesses::.cpu.data         5269923                       # number of overall (read+write) accesses
system.l2.overall_accesses::total             5270602                       # number of overall (read+write) accesses
system.l2.demand_miss_rate::.cpu.inst        0.870398                       # miss rate for demand accesses
system.l2.demand_miss_rate::.cpu.data        0.998745                       # miss rate for demand accesses
system.l2.demand_miss_rate::total            0.998728                       # miss rate for demand accesses
system.l2.overall_miss_rate::.cpu.inst       0.870398                       # miss rate for overall accesses
system.l2.overall_miss_rate::.cpu.data       0.998745                       # miss rate for overall accesses
system.l2.overall_miss_rate::total           0.998728                       # miss rate for overall accesses
system.l2.demand_avg_miss_latency::.cpu.inst 101128.595601                       # average overall miss latency
system.l2.demand_avg_miss_latency::.cpu.data 99908.049860                       # average overall miss latency
system.l2.demand_avg_miss_latency::total 99908.186896                       # average overall miss latency
system.l2.overall_avg_miss_latency::.cpu.inst 101128.595601                       # average overall miss latency
system.l2.overall_avg_miss_latency::.cpu.data 99908.049860                       # average overall miss latency
system.l2.overall_avg_miss_latency::total 99908.186896                       # average overall miss latency
system.l2.blocked_cycles::no_mshrs                  0                       # number of cycles access was blocked
system.l2.blocked_cycles::no_targets                0                       # number of cycles access was blocked
system.l2.blocked::no_mshrs                         0                       # number of cycles access was blocked
system.l2.blocked::no_targets                       0                       # number of cycles access was blocked
system.l2.avg_blocked_cycles::no_mshrs            nan                       # average number of cycles each access was blocked
system.l2.avg_blocked_cycles::no_targets          nan                       # average number of cycles each access was blocked
system.l2.writebacks::.writebacks             5246667                       # number of writebacks
system.l2.writebacks::total                   5246667                       # number of writebacks
system.l2.demand_mshr_hits::.cpu.data               6                       # number of demand (read+write) MSHR hits
system.l2.demand_mshr_hits::total                   6                       # number of demand (read+write) MSHR hits
system.l2.overall_mshr_hits::.cpu.data              6                       # number of overall MSHR hits
system.l2.overall_mshr_hits::total                  6                       # number of overall MSHR hits
system.l2.demand_mshr_misses::.cpu.inst           591                       # number of demand (read+write) MSHR misses
system.l2.demand_mshr_misses::.cpu.data       5263303                       # number of demand (read+write) MSHR misses
system.l2.demand_mshr_misses::total           5263894                       # number of demand (read+write) MSHR misses
system.l2.overall_mshr_misses::.cpu.inst          591                       # number of overall MSHR misses
system.l2.overall_mshr_misses::.cpu.data      5263303                       # number of overall MSHR misses
system.l2.overall_mshr_misses::total          5263894                       # number of overall MSHR misses
system.l2.demand_mshr_miss_latency::.cpu.inst     47947000                       # number of demand (read+write) MSHR miss cycles
system.l2.demand_mshr_miss_latency::.cpu.data 420580375000                       # number of demand (read+write) MSHR miss cycles
system.l2.demand_mshr_miss_latency::total 420628322000                       # number of demand (read+write) MSHR miss cycles
system.l2.overall_mshr_miss_latency::.cpu.inst     47947000                       # number of overall MSHR miss cycles
system.l2.overall_mshr_miss_latency::.cpu.data 420580375000                       # number of overall MSHR miss cycles
system.l2.overall_mshr_miss_latency::total 420628322000                       # number of overall MSHR miss cycles
system.l2.demand_mshr_miss_rate::.cpu.inst     0.870398                       # mshr miss rate for demand accesses
system.l2.demand_mshr_miss_rate::.cpu.data     0.998744                       # mshr miss rate for demand accesses
system.l2.demand_mshr_miss_rate::total       0.998727                       # mshr miss rate for demand accesses
system.l2.overall_mshr_miss_rate::.cpu.inst     0.870398                       # mshr miss rate for overall accesses
system.l2.overall_mshr_miss_rate::.cpu.data     0.998744                       # mshr miss rate for overall accesses
system.l2.overall_mshr_miss_rate::total      0.998727                       # mshr miss rate for overall accesses
system.l2.demand_avg_mshr_miss_latency::.cpu.inst 81128.595601                       # average overall mshr miss latency
system.l2.demand_avg_mshr_miss_latency::.cpu.data 79908.068185                       # average overall mshr miss latency
system.l2.demand_avg_mshr_miss_latency::total 79908.205218                       # average overall mshr miss latency
system.l2.overall_avg_mshr_miss_latency::.cpu.inst 81128.595601                       # average overall mshr miss latency
system.l2.overall_avg_mshr_miss_latency::.cpu.data 79908.068185                       # average overall mshr miss latency
system.l2.overall_avg_mshr_miss_latency::total 79908.205218                       # average overall mshr miss latency
system.l2.replacements                        5247599                       # number of replacements
system.l2.WritebackDirty_hits::.writebacks      5266268                       # number of WritebackDirty hits
system.l2.WritebackDirty_hits::total          5266268                       # number of WritebackDirty hits
system.l2.WritebackDirty_accesses::.writebacks      5266268                       # number of WritebackDirty accesses(hits+misses)
system.l2.WritebackDirty_accesses::total      5266268                       # number of WritebackDirty accesses(hits+misses)
system.l2.WritebackClean_hits::.writebacks          301                       # number of WritebackClean hits
system.l2.WritebackClean_hits::total              301                       # number of WritebackClean hits
system.l2.WritebackClean_accesses::.writebacks          301                       # number of WritebackClean accesses(hits+misses)
system.l2.WritebackClean_accesses::total          301                       # number of WritebackClean accesses(hits+misses)
system.l2.CleanEvict_mshr_misses::.writebacks           10                       # number of CleanEvict MSHR misses
system.l2.CleanEvict_mshr_misses::total            10                       # number of CleanEvict MSHR misses
system.l2.CleanEvict_mshr_miss_rate::.writebacks          inf                       # mshr miss rate for CleanEvict accesses
system.l2.CleanEvict_mshr_miss_rate::total          inf                       # mshr miss rate for CleanEvict accesses
system.l2.ReadExReq_hits::.cpu.data              3213                       # number of ReadExReq hits
system.l2.ReadExReq_hits::total                  3213                       # number of ReadExReq hits
system.l2.ReadExReq_misses::.cpu.data         5263022                       # number of ReadExReq misses
system.l2.ReadExReq_misses::total             5263022                       # number of ReadExReq misses
system.l2.ReadExReq_miss_latency::.cpu.data 525816968000                       # number of ReadExReq miss cycles
system.l2.ReadExReq_miss_latency::total  525816968000                       # number of ReadExReq miss cycles
system.l2.ReadExReq_accesses::.cpu.data       5266235                       # number of ReadExReq accesses(hits+misses)
system.l2.ReadExReq_accesses::total           5266235                       # number of ReadExReq accesses(hits+misses)
system.l2.ReadExReq_miss_rate::.cpu.data     0.999390                       # miss rate for ReadExReq accesses
system.l2.ReadExReq_miss_rate::total         0.999390                       # miss rate for ReadExReq accesses
system.l2.ReadExReq_avg_miss_latency::.cpu.data 99907.803539                       # average ReadExReq miss latency
system.l2.ReadExReq_avg_miss_latency::total 99907.803539                       # average ReadExReq miss latency
system.l2.ReadExReq_mshr_misses::.cpu.data      5263022                       # number of ReadExReq MSHR misses
system.l2.ReadExReq_mshr_misses::total        5263022                       # number of ReadExReq MSHR misses
system.l2.ReadExReq_mshr_miss_latency::.cpu.data 420556528000                       # number of ReadExReq MSHR miss cycles
system.l2.ReadExReq_mshr_miss_latency::total 420556528000                       # number of ReadExReq MSHR miss cycles
system.l2.ReadExReq_mshr_miss_rate::.cpu.data     0.999390                       # mshr miss rate for ReadExReq accesses
system.l2.ReadExReq_mshr_miss_rate::total     0.999390                       # mshr miss rate for ReadExReq accesses
system.l2.ReadExReq_avg_mshr_miss_latency::.cpu.data 79907.803539                       # average ReadExReq mshr miss latency
system.l2.ReadExReq_avg_mshr_miss_latency::total 79907.803539                       # average ReadExReq mshr miss latency
system.l2.ReadCleanReq_hits::.cpu.inst             88                       # number of ReadCleanReq hits
system.l2.ReadCleanReq_hits::total                 88                       # number of ReadCleanReq hits
system.l2.ReadCleanReq_misses::.cpu.inst          591                       # number of ReadCleanReq misses
system.l2.ReadCleanReq_misses::total              591                       # number of ReadCleanReq misses
system.l2.ReadCleanReq_miss_latency::.cpu.inst     59767000                       # number of ReadCleanReq miss cycles
system.l2.ReadCleanReq_miss_latency::total     59767000                       # number of ReadCleanReq miss cycles
system.l2.ReadCleanReq_accesses::.cpu.inst          679                       # number of ReadCleanReq accesses(hits+misses)
system.l2.ReadCleanReq_accesses::total            679                       # number of ReadCleanReq accesses(hits+misses)
system.l2.ReadCleanReq_miss_rate::.cpu.inst     0.870398                       # miss rate for ReadCleanReq accesses
system.l2.ReadCleanReq_miss_rate::total      0.870398                       # miss rate for ReadCleanReq accesses
system.l2.ReadCleanReq_avg_miss_latency::.cpu.inst 101128.595601                       # average ReadCleanReq miss latency
system.l2.ReadCleanReq_avg_miss_latency::total 101128.595601                       # average ReadCleanReq miss latency
system.l2.ReadCleanReq_mshr_misses::.cpu.inst          591                       # number of ReadCleanReq MSHR misses
system.l2.ReadCleanReq_mshr_misses::total          591                       # number of ReadCleanReq MSHR misses
system.l2.ReadCleanReq_mshr_miss_latency::.cpu.inst     47947000                       # number of ReadCleanReq MSHR miss cycles
system.l2.ReadCleanReq_mshr_miss_latency::total     47947000                       # number of ReadCleanReq MSHR miss cycles
system.l2.ReadCleanReq_mshr_miss_rate::.cpu.inst     0.870398                       # mshr miss rate for ReadCleanReq accesses
system.l2.ReadCleanReq_mshr_miss_rate::total     0.870398                       # mshr miss rate for ReadCleanReq accesses
system.l2.ReadCleanReq_avg_mshr_miss_latency::.cpu.inst 81128.595601                       # average ReadCleanReq mshr miss latency
system.l2.ReadCleanReq_avg_mshr_miss_latency::total 81128.595601                       # average ReadCleanReq mshr miss latency
system.l2.ReadSharedReq_hits::.cpu.data          3401                       # number of ReadSharedReq hits
system.l2.ReadSharedReq_hits::total              3401                       # number of ReadSharedReq hits
system.l2.ReadSharedReq_misses::.cpu.data          287                       # number of ReadSharedReq misses
system.l2.ReadSharedReq_misses::total             287                       # number of ReadSharedReq misses
system.l2.ReadSharedReq_miss_latency::.cpu.data     29970000                       # number of ReadSharedReq miss cycles
system.l2.ReadSharedReq_miss_latency::total     29970000                       # number of ReadSharedReq miss cycles
system.l2.ReadSharedReq_accesses::.cpu.data         3688                       # number of ReadSharedReq accesses(hits+misses)
system.l2.ReadSharedReq_accesses::total          3688                       # number of ReadSharedReq accesses(hits+misses)
system.l2.ReadSharedReq_miss_rate::.cpu.data     0.077820                       # miss rate for ReadSharedReq accesses
system.l2.ReadSharedReq_miss_rate::total     0.077820                       # miss rate for ReadSharedReq accesses
system.l2.ReadSharedReq_avg_miss_latency::.cpu.data 104425.087108                       # average ReadSharedReq miss latency
system.l2.ReadSharedReq_avg_miss_latency::total 104425.087108                       # average ReadSharedReq miss latency
system.l2.ReadSharedReq_mshr_hits::.cpu.data            6                       # number of ReadSharedReq MSHR hits
system.l2.ReadSharedReq_mshr_hits::total            6                       # number of ReadSharedReq MSHR hits
system.l2.ReadSharedReq_mshr_misses::.cpu.data          281                       # number of ReadSharedReq MSHR misses
system.l2.ReadSharedReq_mshr_misses::total          281                       # number of ReadSharedReq MSHR misses
system.l2.ReadSharedReq_mshr_miss_latency::.cpu.data     23847000                       # number of ReadSharedReq MSHR miss cycles
system.l2.ReadSharedReq_mshr_miss_latency::total     23847000                       # number of ReadSharedReq MSHR miss cycles
system.l2.ReadSharedReq_mshr_miss_rate::.cpu.data     0.076193                       # mshr miss rate for ReadSharedReq accesses
system.l2.ReadSharedReq_mshr_miss_rate::total     0.076193                       # mshr miss rate for ReadSharedReq accesses
system.l2.ReadSharedReq_avg_mshr_miss_latency::.cpu.data 84864.768683                       # average ReadSharedReq mshr miss latency
system.l2.ReadSharedReq_avg_mshr_miss_latency::total 84864.768683                       # average ReadSharedReq mshr miss latency
system.l2.power_state.pwrStateResidencyTicks::UNDEFINED 705599398000                       # Cumulative time (in ticks) in various power states
system.l2.tags.tagsinuse                 16244.890544                       # Cycle average of tags in use
system.l2.tags.total_refs                    10539683                       # Total number of references to valid blocks.
system.l2.tags.sampled_refs                   5263983                       # Sample count of references to valid blocks.
system.l2.tags.avg_refs                      2.002226                       # Average number of references to valid blocks.
system.l2.tags.warmup_cycle                     87000                       # Cycle when the warmup percentage was hit.
system.l2.tags.occ_blocks::.writebacks       0.179791                       # Average occupied blocks per requestor
system.l2.tags.occ_blocks::.cpu.inst         4.050535                       # Average occupied blocks per requestor
system.l2.tags.occ_blocks::.cpu.data     16240.660218                       # Average occupied blocks per requestor
system.l2.tags.occ_percent::.writebacks      0.000011                       # Average percentage of cache occupancy
system.l2.tags.occ_percent::.cpu.inst        0.000247                       # Average percentage of cache occupancy
system.l2.tags.occ_percent::.cpu.data        0.991251                       # Average percentage of cache occupancy
system.l2.tags.occ_percent::total            0.991509                       # Average percentage of cache occupancy
system.l2.tags.occ_task_id_blocks::1024         16384                       # Occupied blocks per task id
system.l2.tags.age_task_id_blocks_1024::0           75                       # Occupied blocks per task id
system.l2.tags.age_task_id_blocks_1024::1          679                       # Occupied blocks per task id
system.l2.tags.age_task_id_blocks_1024::2         6780                       # Occupied blocks per task id
system.l2.tags.age_task_id_blocks_1024::3         8850                       # Occupied blocks per task id
system.l2.tags.occ_task_id_percent::1024            1                       # Percentage of cache occupancy per task id
system.l2.tags.tag_accesses                  26343381                       # Number of tag accesses
system.l2.tags.data_accesses                 26343381                       # Number of data accesses
system.l2.tags.power_state.pwrStateResidencyTicks::UNDEFINED 705599398000                       # Cumulative time (in ticks) in various power states
system.mem_ctrls.avgPriority_.writebacks::samples   5246667.00                       # Average QoS priority value for accepted requests
system.mem_ctrls.avgPriority_.cpu.inst::samples       591.00                       # Average QoS priority value for accepted requests
system.mem_ctrls.avgPriority_.cpu.data::samples   5263303.00                       # Average QoS priority value for accepted requests
system.mem_ctrls.priorityMinLatency      0.000000018750                       # per QoS priority minimum request to response latency (s)
system.mem_ctrls.priorityMaxLatency      0.001592668250                       # per QoS priority maximum request to response latency (s)
system.mem_ctrls.numReadWriteTurnArounds       327434                       # Number of turnarounds from READ to WRITE
system.mem_ctrls.numWriteReadTurnArounds       327434                       # Number of turnarounds from WRITE to READ
system.mem_ctrls.numStayReadState            15625816                       # Number of times bus staying in READ state
system.mem_ctrls.numStayWriteState            4919241                       # Number of times bus staying in WRITE state
system.mem_ctrls.readReqs                     5263894                       # Number of read requests accepted
system.mem_ctrls.writeReqs                    5246667                       # Number of write requests accepted
system.mem_ctrls.readBursts                   5263894                       # Number of controller read bursts, including those serviced by the write queue
system.mem_ctrls.writeBursts                  5246667                       # Number of controller write bursts, including those merged in the write queue
system.mem_ctrls.servicedByWrQ                      0                       # Number of controller read bursts serviced by the write queue
system.mem_ctrls.mergedWrBursts                     0                       # Number of controller write bursts merged with an existing one
system.mem_ctrls.neitherReadNorWriteReqs            0                       # Number of requests that are neither read nor write
system.mem_ctrls.avgRdQLen                       1.00                       # Average read queue length when enqueuing
system.mem_ctrls.avgWrQLen                      25.54                       # Average write queue length when enqueuing
system.mem_ctrls.numRdRetry                         0                       # Number of times read queue was full causing retry
system.mem_ctrls.numWrRetry                         0                       # Number of times write queue was full causing retry
system.mem_ctrls.readPktSize::0                     0                       # Read request sizes (log2)
system.mem_ctrls.readPktSize::1                     0                       # Read request sizes (log2)
system.mem_ctrls.readPktSize::2                     0                       # Read request sizes (log2)
system.mem_ctrls.readPktSize::3                     0                       # Read request sizes (log2)
system.mem_ctrls.readPktSize::4                     0                       # Read request sizes (log2)
system.mem_ctrls.readPktSize::5                     0                       # Read request sizes (log2)
system.mem_ctrls.readPktSize::6               5263894                       # Read request sizes (log2)
system.mem_ctrls.writePktSize::0                    0                       # Write request sizes (log2)
system.mem_ctrls.writePktSize::1                    0                       # Write request sizes (log2)
system.mem_ctrls.writePktSize::2                    0                       # Write request sizes (log2)
system.mem_ctrls.writePktSize::3                    0                       # Write request sizes (log2)
system.mem_ctrls.writePktSize::4                    0                       # Write request sizes (log2)
system.mem_ctrls.writePktSize::5                    0                       # Write request sizes (log2)
system.mem_ctrls.writePktSize::6              5246667                       # Write request sizes (log2)
system.mem_ctrls.rdQLenPdf::0                 5263650                       # What read queue length does an incoming req see
system.mem_ctrls.rdQLenPdf::1                     224                       # What read queue length does an incoming req see
system.mem_ctrls.rdQLenPdf::2                      19                       # What read queue length does an incoming req see
system.mem_ctrls.rdQLenPdf::3                       1                       # What read queue length does an incoming req see
system.mem_ctrls.rdQLenPdf::4                       0                       # What read queue length does an incoming req see
system.mem_ctrls.rdQLenPdf::5                       0                       # What read queue length does an incoming req see
system.mem_ctrls.rdQLenPdf::6                       0                       # What read queue length does an incoming req see
system.mem_ctrls.rdQLenPdf::7                       0                       # What read queue length does an incoming req see
system.mem_ctrls.rdQLenPdf::8                       0                       # What read queue length does an incoming req see
system.mem_ctrls.rdQLenPdf::9                       0                       # What read queue length does an incoming req see
system.mem_ctrls.rdQLenPdf::10                      0                       # What read queue length does an incoming req see
[...]
system.mem_ctrls.dram.bw_write::.writebacks    475888569                       # Write bandwidth from this memory (bytes/s)
system.mem_ctrls.dram.bw_write::total       475888569                       # Write bandwidth from this memory (bytes/s)
system.mem_ctrls.dram.bw_total::.writebacks    475888569                       # Total bandwidth to/from this memory (bytes/s)
system.mem_ctrls.dram.bw_total::.cpu.inst        53605                       # Total bandwidth to/from this memory (bytes/s)
system.mem_ctrls.dram.bw_total::.cpu.data    477397505                       # Total bandwidth to/from this memory (bytes/s)
system.mem_ctrls.dram.bw_total::total       953339680                       # Total bandwidth to/from this memory (bytes/s)
system.mem_ctrls.dram.readBursts              5263894                       # Number of DRAM read bursts
system.mem_ctrls.dram.writeBursts             5246638                       # Number of DRAM write bursts
system.mem_ctrls.dram.perBankRdBursts::0       328923                       # Per bank write bursts
system.mem_ctrls.dram.perBankRdBursts::1       329090                       # Per bank write bursts
system.mem_ctrls.dram.perBankRdBursts::2       329059                       # Per bank write bursts
system.mem_ctrls.dram.perBankRdBursts::3       329078                       # Per bank write bursts
system.mem_ctrls.dram.perBankRdBursts::4       328991                       # Per bank write bursts
system.mem_ctrls.dram.perBankRdBursts::5       329077                       # Per bank write bursts
system.mem_ctrls.dram.perBankRdBursts::6       329081                       # Per bank write bursts
system.mem_ctrls.dram.perBankRdBursts::7       329025                       # Per bank write bursts
system.mem_ctrls.dram.perBankRdBursts::8       328903                       # Per bank write bursts
system.mem_ctrls.dram.perBankRdBursts::9       328864                       # Per bank write bursts
system.mem_ctrls.dram.perBankRdBursts::10       328902                       # Per bank write bursts
system.mem_ctrls.dram.perBankRdBursts::11       328924                       # Per bank write bursts
system.mem_ctrls.dram.perBankRdBursts::12       329019                       # Per bank write bursts
system.mem_ctrls.dram.perBankRdBursts::13       329022                       # Per bank write bursts
system.mem_ctrls.dram.perBankRdBursts::14       328993                       # Per bank write bursts
system.mem_ctrls.dram.perBankRdBursts::15       328943                       # Per bank write bursts
system.mem_ctrls.dram.perBankWrBursts::0       327813                       # Per bank write bursts
system.mem_ctrls.dram.perBankWrBursts::1       327965                       # Per bank write bursts
system.mem_ctrls.dram.perBankWrBursts::2       327951                       # Per bank write bursts
system.mem_ctrls.dram.perBankWrBursts::3       328030                       # Per bank write bursts
system.mem_ctrls.dram.perBankWrBursts::4       327950                       # Per bank write bursts
system.mem_ctrls.dram.perBankWrBursts::5       328009                       # Per bank write bursts
system.mem_ctrls.dram.perBankWrBursts::6       328010                       # Per bank write bursts
system.mem_ctrls.dram.perBankWrBursts::7       327982                       # Per bank write bursts
system.mem_ctrls.dram.perBankWrBursts::8       327809                       # Per bank write bursts
system.mem_ctrls.dram.perBankWrBursts::9       327808                       # Per bank write bursts
system.mem_ctrls.dram.perBankWrBursts::10       327808                       # Per bank write bursts
system.mem_ctrls.dram.perBankWrBursts::11       327863                       # Per bank write bursts
system.mem_ctrls.dram.perBankWrBursts::12       327937                       # Per bank write bursts
system.mem_ctrls.dram.perBankWrBursts::13       327929                       # Per bank write bursts
system.mem_ctrls.dram.perBankWrBursts::14       327885                       # Per bank write bursts
system.mem_ctrls.dram.perBankWrBursts::15       327889                       # Per bank write bursts
system.mem_ctrls.dram.totQLat             52095713250                       # Total ticks spent queuing
system.mem_ctrls.dram.totBusLat           26319470000                       # Total ticks spent in databus transfers
system.mem_ctrls.dram.totMemAccLat       150793725750                       # Total ticks spent from burst creation until serviced by the DRAM
system.mem_ctrls.dram.avgQLat                 9896.80                       # Average queueing delay per DRAM burst
system.mem_ctrls.dram.avgBusLat               5000.00                       # Average bus latency per DRAM burst
system.mem_ctrls.dram.avgMemAccLat           28646.80                       # Average memory access latency per DRAM burst
system.mem_ctrls.dram.readRowHits             4808841                       # Number of row buffer hits during reads
system.mem_ctrls.dram.writeRowHits            4879344                       # Number of row buffer hits during writes
system.mem_ctrls.dram.readRowHitRate            91.36                       # Row buffer hit rate for reads
system.mem_ctrls.dram.writeRowHitRate           93.00                       # Row buffer hit rate for writes
system.mem_ctrls.dram.bytesPerActivate::samples       822346                       # Bytes accessed per row activation
system.mem_ctrls.dram.bytesPerActivate::mean   817.993088                       # Bytes accessed per row activation
system.mem_ctrls.dram.bytesPerActivate::gmean   697.421671                       # Bytes accessed per row activation
system.mem_ctrls.dram.bytesPerActivate::stdev   315.525625                       # Bytes accessed per row activation
system.mem_ctrls.dram.bytesPerActivate::0-127        33054      4.02%      4.02% # Bytes accessed per row activation
system.mem_ctrls.dram.bytesPerActivate::128-255        37705      4.59%      8.60% # Bytes accessed per row activation
system.mem_ctrls.dram.bytesPerActivate::256-383        50340      6.12%     14.73% # Bytes accessed per row activation
system.mem_ctrls.dram.bytesPerActivate::384-511        37324      4.54%     19.26% # Bytes accessed per row activation
system.mem_ctrls.dram.bytesPerActivate::512-639        34923      4.25%     23.51% # Bytes accessed per row activation
system.mem_ctrls.dram.bytesPerActivate::640-767        35435      4.31%     27.82% # Bytes accessed per row activation
system.mem_ctrls.dram.bytesPerActivate::768-895        51049      6.21%     34.03% # Bytes accessed per row activation
system.mem_ctrls.dram.bytesPerActivate::896-1023        34953      4.25%     38.28% # Bytes accessed per row activation
system.mem_ctrls.dram.bytesPerActivate::1024-1151       507563     61.72%    100.00% # Bytes accessed per row activation
system.mem_ctrls.dram.bytesPerActivate::total       822346                       # Bytes accessed per row activation
system.mem_ctrls.dram.bytesRead             336889216                       # Total number of bytes read from DRAM
system.mem_ctrls.dram.bytesWritten          335784832                       # Total number of bytes written to DRAM
system.mem_ctrls.dram.avgRdBW              477.451110                       # Average DRAM read bandwidth in MiBytes/s
system.mem_ctrls.dram.avgWrBW              475.885939                       # Average DRAM write bandwidth in MiBytes/s
system.mem_ctrls.dram.peakBW                 12800.00                       # Theoretical peak bandwidth in MiByte/s
system.mem_ctrls.dram.busUtil                    7.45                       # Data bus utilization in percentage
system.mem_ctrls.dram.busUtilRead                3.73                       # Data bus utilization in percentage for reads
system.mem_ctrls.dram.busUtilWrite               3.72                       # Data bus utilization in percentage for writes
system.mem_ctrls.dram.pageHitRate               92.18                       # Row buffer hit rate, read and write combined
system.mem_ctrls.dram.power_state.pwrStateResidencyTicks::UNDEFINED 705599398000                       # Cumulative time (in ticks) in various power states
system.mem_ctrls.dram.rank0.actEnergy      2935575300                       # Energy for activate commands per rank (pJ)
system.mem_ctrls.dram.rank0.preEnergy      1560291480                       # Energy for precharge commands per rank (pJ)
system.mem_ctrls.dram.rank0.readEnergy    18794793360                       # Energy for read commands per rank (pJ)
system.mem_ctrls.dram.rank0.writeEnergy   13695766200                       # Energy for write commands per rank (pJ)
system.mem_ctrls.dram.rank0.refreshEnergy 55699291440.000008                       # Energy for refresh commands per rank (pJ)
system.mem_ctrls.dram.rank0.actBackEnergy 166112277360                       # Energy for active background per rank (pJ)
system.mem_ctrls.dram.rank0.preBackEnergy 131066146080                       # Energy for precharge background per rank (pJ)
system.mem_ctrls.dram.rank0.actPowerDownEnergy            0                       # Energy for active power-down per rank (pJ)
system.mem_ctrls.dram.rank0.prePowerDownEnergy            0                       # Energy for precharge power-down per rank (pJ)
system.mem_ctrls.dram.rank0.selfRefreshEnergy            0                       # Energy for self refresh per rank (pJ)
system.mem_ctrls.dram.rank0.totalEnergy  389864141220                       # Total energy per rank (pJ)
system.mem_ctrls.dram.rank0.averagePower   552.529016                       # Core power per rank (mW)
system.mem_ctrls.dram.rank0.totalIdleTime            0                       # Total Idle time Per DRAM Rank
system.mem_ctrls.dram.rank0.pwrStateTime::IDLE 336230136250                       # Time in different power states
system.mem_ctrls.dram.rank0.pwrStateTime::REF  23561460000                       # Time in different power states
system.mem_ctrls.dram.rank0.pwrStateTime::SREF            0                       # Time in different power states
system.mem_ctrls.dram.rank0.pwrStateTime::PRE_PDN            0                       # Time in different power states
system.mem_ctrls.dram.rank0.pwrStateTime::ACT 345807801750                       # Time in different power states
system.mem_ctrls.dram.rank0.pwrStateTime::ACT_PDN            0                       # Time in different power states
system.mem_ctrls.dram.rank1.actEnergy      2935982280                       # Energy for activate commands per rank (pJ)
system.mem_ctrls.dram.rank1.preEnergy      1560511590                       # Energy for precharge commands per rank (pJ)
system.mem_ctrls.dram.rank1.readEnergy    18789409800                       # Energy for read commands per rank (pJ)
system.mem_ctrls.dram.rank1.writeEnergy   13691684160                       # Energy for write commands per rank (pJ)
system.mem_ctrls.dram.rank1.refreshEnergy 55699291440.000008                       # Energy for refresh commands per rank (pJ)
system.mem_ctrls.dram.rank1.actBackEnergy 166122956880                       # Energy for active background per rank (pJ)
system.mem_ctrls.dram.rank1.preBackEnergy 131057152800                       # Energy for precharge background per rank (pJ)
system.mem_ctrls.dram.rank1.actPowerDownEnergy            0                       # Energy for active power-down per rank (pJ)
system.mem_ctrls.dram.rank1.prePowerDownEnergy            0                       # Energy for precharge power-down per rank (pJ)
system.mem_ctrls.dram.rank1.selfRefreshEnergy            0                       # Energy for self refresh per rank (pJ)
system.mem_ctrls.dram.rank1.totalEnergy  389856988950                       # Total energy per rank (pJ)
system.mem_ctrls.dram.rank1.averagePower   552.518880                       # Core power per rank (mW)
system.mem_ctrls.dram.rank1.totalIdleTime            0                       # Total Idle time Per DRAM Rank
system.mem_ctrls.dram.rank1.pwrStateTime::IDLE 336208072000                       # Time in different power states
system.mem_ctrls.dram.rank1.pwrStateTime::REF  23561460000                       # Time in different power states
system.mem_ctrls.dram.rank1.pwrStateTime::SREF            0                       # Time in different power states
system.mem_ctrls.dram.rank1.pwrStateTime::PRE_PDN            0                       # Time in different power states
system.mem_ctrls.dram.rank1.pwrStateTime::ACT 345829866000                       # Time in different power states
system.mem_ctrls.dram.rank1.pwrStateTime::ACT_PDN            0                       # Time in different power states
system.mem_ctrls.power_state.pwrStateResidencyTicks::UNDEFINED 705599398000                       # Cumulative time (in ticks) in various power states
system.membus.trans_dist::ReadResp                872                       # Transaction distribution
system.membus.trans_dist::WritebackDirty      5246667                       # Transaction distribution
system.membus.trans_dist::CleanEvict              462                       # Transaction distribution
system.membus.trans_dist::ReadExReq           5263022                       # Transaction distribution
system.membus.trans_dist::ReadExResp          5263022                       # Transaction distribution
system.membus.trans_dist::ReadSharedReq           872                       # Transaction distribution
system.membus.pkt_count_system.l2.mem_side_port::system.mem_ctrls.port     15774917                       # Packet count per connected requestor and responder (bytes)
system.membus.pkt_count::total               15774917                       # Packet count per connected requestor and responder (bytes)
system.membus.pkt_size_system.l2.mem_side_port::system.mem_ctrls.port    672675904                       # Cumulative packet size per connected requestor and responder (bytes)
system.membus.pkt_size::total               672675904                       # Cumulative packet size per connected requestor and responder (bytes)
system.membus.snoops                                0                       # Total snoops (count)
system.membus.snoopTraffic                          0                       # Total snoop traffic (bytes)
system.membus.snoop_fanout::samples           5263894                       # Request fanout histogram
system.membus.snoop_fanout::mean                    0                       # Request fanout histogram
system.membus.snoop_fanout::stdev                   0                       # Request fanout histogram
system.membus.snoop_fanout::underflows              0      0.00%      0.00% # Request fanout histogram
system.membus.snoop_fanout::0                 5263894    100.00%    100.00% # Request fanout histogram
system.membus.snoop_fanout::1                       0      0.00%    100.00% # Request fanout histogram
system.membus.snoop_fanout::overflows               0      0.00%    100.00% # Request fanout histogram
system.membus.snoop_fanout::min_value               0                       # Request fanout histogram
system.membus.snoop_fanout::max_value               0                       # Request fanout histogram
system.membus.snoop_fanout::total             5263894                       # Request fanout histogram
system.membus.power_state.pwrStateResidencyTicks::UNDEFINED 705599398000                       # Cumulative time (in ticks) in various power states
system.membus.reqLayer0.occupancy         31497691000                       # Layer occupancy (ticks)
system.membus.reqLayer0.utilization               4.5                       # Layer utilization (%)
system.membus.respLayer1.occupancy        27695415750                       # Layer occupancy (ticks)
system.membus.respLayer1.utilization              3.9                       # Layer utilization (%)
system.tol2bus.trans_dist::ReadResp              4367                       # Transaction distribution
system.tol2bus.trans_dist::WritebackDirty     10512935                       # Transaction distribution
system.tol2bus.trans_dist::WritebackClean          309                       # Transaction distribution
system.tol2bus.trans_dist::CleanEvict            4075                       # Transaction distribution
system.tol2bus.trans_dist::ReadExReq          5266235                       # Transaction distribution
system.tol2bus.trans_dist::ReadExResp         5266235                       # Transaction distribution
system.tol2bus.trans_dist::ReadCleanReq           679                       # Transaction distribution
system.tol2bus.trans_dist::ReadSharedReq         3688                       # Transaction distribution
system.tol2bus.pkt_count_system.cpu.icache.mem_side_port::system.l2.cpu_side_port         1667                       # Packet count per connected requestor and responder (bytes)
system.tol2bus.pkt_count_system.cpu.dcache.mem_side_port::system.l2.cpu_side_port     15809257                       # Packet count per connected requestor and responder (bytes)
system.tol2bus.pkt_count::total              15810924                       # Packet count per connected requestor and responder (bytes)
system.tol2bus.pkt_size_system.cpu.icache.mem_side_port::system.l2.cpu_side_port        63232                       # Cumulative packet size per connected requestor and responder (bytes)
system.tol2bus.pkt_size_system.cpu.dcache.mem_side_port::system.l2.cpu_side_port    674316224                       # Cumulative packet size per connected requestor and responder (bytes)
system.tol2bus.pkt_size::total              674379456                       # Cumulative packet size per connected requestor and responder (bytes)
system.tol2bus.snoops                         5247599                       # Total snoops (count)
system.tol2bus.snoopTraffic                 335786688                       # Total snoop traffic (bytes)
system.tol2bus.snoop_fanout::samples         10518201                       # Request fanout histogram
system.tol2bus.snoop_fanout::mean            0.000105                       # Request fanout histogram
system.tol2bus.snoop_fanout::stdev           0.010240                       # Request fanout histogram
system.tol2bus.snoop_fanout::underflows             0      0.00%      0.00% # Request fanout histogram
system.tol2bus.snoop_fanout::0               10517098     99.99%     99.99% # Request fanout histogram
system.tol2bus.snoop_fanout::1                   1103      0.01%    100.00% # Request fanout histogram
system.tol2bus.snoop_fanout::2                      0      0.00%    100.00% # Request fanout histogram
system.tol2bus.snoop_fanout::overflows              0      0.00%    100.00% # Request fanout histogram
system.tol2bus.snoop_fanout::min_value              0                       # Request fanout histogram
system.tol2bus.snoop_fanout::max_value              1                       # Request fanout histogram
system.tol2bus.snoop_fanout::total           10518201                       # Request fanout histogram
system.tol2bus.power_state.pwrStateResidencyTicks::UNDEFINED 705599398000                       # Cumulative time (in ticks) in various power states
system.tol2bus.reqLayer0.occupancy        21073476000                       # Layer occupancy (ticks)
system.tol2bus.reqLayer0.utilization              3.0                       # Layer utilization (%)
system.tol2bus.respLayer0.occupancy           2037000                       # Layer occupancy (ticks)
system.tol2bus.respLayer0.utilization             0.0                       # Layer utilization (%)
system.tol2bus.respLayer1.occupancy       15809775993                       # Layer occupancy (ticks)
system.tol2bus.respLayer1.utilization             2.2                       # Layer utilization (%)
system.voltage_domain.voltage                       1                       # Voltage in Volts

---------- End Simulation Statistics   ----------
