
---------- Begin Simulation Statistics ----------
final_tick                                61797931500                       # Number of ticks from beginning of simulation (restored from checkpoints and never reset)
host_inst_rate                                 199218                       # Simulator instruction rate (inst/s)
host_mem_usage                                 652520                       # Number of bytes of host memory used
host_op_rate                                   218007                       # Simulator op (including micro ops) rate (op/s)
host_seconds                                   501.96                       # Real time elapsed on the host
host_tick_rate                              123112546                       # Simulator tick rate (ticks/s)
sim_freq                                 1000000000000                       # Frequency of simulated ticks
sim_insts                                   100000001                       # Number of instructions simulated
sim_ops                                     109431274                       # Number of ops (including micro ops) simulated
sim_seconds                                  0.061798                       # Number of seconds simulated
sim_ticks                                 61797931500                       # Number of ticks simulated
system.cpu.committedInsts                   100000001                       # Number of instructions committed
system.cpu.committedOps                     109431274                       # Number of ops (including micro ops) committed
system.cpu.cpi                               1.235959                       # CPI: cycles per instruction
system.cpu.discardedOps                        422234                       # Number of ops (including micro ops) which were discarded before commit
system.cpu.idleCycles                        12828711                       # Total number of cycles that the object has spent stopped
system.cpu.ipc                               0.809089                       # IPC: instructions per cycle
system.cpu.numCycles                        123595863                       # number of cpu cycles simulated
system.cpu.numFetchSuspends                         0                       # Number of times Execute suspended instruction fetching
system.cpu.numWorkItemsCompleted                    0                       # number of work items this cpu completed
system.cpu.numWorkItemsStarted                      0                       # number of work items this cpu started
system.cpu.op_class_0::No_OpClass                   0      0.00%      0.00% # Class of committed instruction
system.cpu.op_class_0::IntAlu                72954995     66.67%     66.67% # Class of committed instruction
system.cpu.op_class_0::IntMult                 568364      0.52%     67.19% # Class of committed instruction
system.cpu.op_class_0::IntDiv                       0      0.00%     67.19% # Class of committed instruction
system.cpu.op_class_0::FloatAdd                     0      0.00%     67.19% # Class of committed instruction
system.cpu.op_class_0::FloatCmp                     0      0.00%     67.19% # Class of committed instruction
system.cpu.op_class_0::FloatCvt                     0      0.00%     67.19% # Class of committed instruction
system.cpu.op_class_0::FloatMult                    0      0.00%     67.19% # Class of committed instruction
system.cpu.op_class_0::FloatMultAcc                 0      0.00%     67.19% # Class of committed instruction
system.cpu.op_class_0::FloatDiv                     0      0.00%     67.19% # Class of committed instruction
system.cpu.op_class_0::FloatMisc                    0      0.00%     67.19% # Class of committed instruction
system.cpu.op_class_0::FloatSqrt                    0      0.00%     67.19% # Class of committed instruction
system.cpu.op_class_0::SimdAdd                 241336      0.22%     67.41% # Class of committed instruction
system.cpu.op_class_0::SimdAddAcc                   0      0.00%     67.41% # Class of committed instruction
system.cpu.op_class_0::SimdAlu                 154628      0.14%     67.55% # Class of committed instruction
system.cpu.op_class_0::SimdCmp                 120668      0.11%     67.66% # Class of committed instruction
system.cpu.op_class_0::SimdCvt                      0      0.00%     67.66% # Class of committed instruction
system.cpu.op_class_0::SimdMisc                 44543      0.04%     67.70% # Class of committed instruction
system.cpu.op_class_0::SimdMult                     0      0.00%     67.70% # Class of committed instruction
system.cpu.op_class_0::SimdMultAcc                  0      0.00%     67.70% # Class of committed instruction
system.cpu.op_class_0::SimdShift                    0      0.00%     67.70% # Class of committed instruction
system.cpu.op_class_0::SimdShiftAcc                 0      0.00%     67.70% # Class of committed instruction
system.cpu.op_class_0::SimdDiv                      0      0.00%     67.70% # Class of committed instruction
system.cpu.op_class_0::SimdSqrt                     0      0.00%     67.70% # Class of committed instruction
system.cpu.op_class_0::SimdFloatAdd                 0      0.00%     67.70% # Class of committed instruction
system.cpu.op_class_0::SimdFloatAlu                 0      0.00%     67.70% # Class of committed instruction
system.cpu.op_class_0::SimdFloatCmp                 0      0.00%     67.70% # Class of committed instruction
system.cpu.op_class_0::SimdFloatCvt                 0      0.00%     67.70% # Class of committed instruction
system.cpu.op_class_0::SimdFloatDiv                 0      0.00%     67.70% # Class of committed instruction
system.cpu.op_class_0::SimdFloatMisc           166417      0.15%     67.85% # Class of committed instruction
system.cpu.op_class_0::SimdFloatMult                0      0.00%     67.85% # Class of committed instruction
system.cpu.op_class_0::SimdFloatMultAcc             0      0.00%     67.85% # Class of committed instruction
system.cpu.op_class_0::SimdFloatSqrt                0      0.00%     67.85% # Class of committed instruction
system.cpu.op_class_0::SimdReduceAdd                0      0.00%     67.85% # Class of committed instruction
system.cpu.op_class_0::SimdReduceAlu                0      0.00%     67.85% # Class of committed instruction
system.cpu.op_class_0::SimdReduceCmp                0      0.00%     67.85% # Class of committed instruction
system.cpu.op_class_0::SimdFloatReduceAdd            0      0.00%     67.85% # Class of committed instruction
system.cpu.op_class_0::SimdFloatReduceCmp            0      0.00%     67.85% # Class of committed instruction
system.cpu.op_class_0::SimdAes                      0      0.00%     67.85% # Class of committed instruction
system.cpu.op_class_0::SimdAesMix                   0      0.00%     67.85% # Class of committed instruction
system.cpu.op_class_0::SimdSha1Hash                 0      0.00%     67.85% # Class of committed instruction
system.cpu.op_class_0::SimdSha1Hash2                0      0.00%     67.85% # Class of committed instruction
system.cpu.op_class_0::SimdSha256Hash               0      0.00%     67.85% # Class of committed instruction
system.cpu.op_class_0::SimdSha256Hash2              0      0.00%     67.85% # Class of committed instruction
system.cpu.op_class_0::SimdShaSigma2                0      0.00%     67.85% # Class of committed instruction
system.cpu.op_class_0::SimdShaSigma3                0      0.00%     67.85% # Class of committed instruction
system.cpu.op_class_0::SimdPredAlu                  0      0.00%     67.85% # Class of committed instruction
system.cpu.op_class_0::MemRead               20645995     18.87%     86.72% # Class of committed instruction
system.cpu.op_class_0::MemWrite              14534328     13.28%    100.00% # Class of committed instruction
system.cpu.op_class_0::FloatMemRead                 0      0.00%    100.00% # Class of committed instruction
system.cpu.op_class_0::FloatMemWrite                0      0.00%    100.00% # Class of committed instruction
system.cpu.op_class_0::IprAccess                    0      0.00%    100.00% # Class of committed instruction
system.cpu.op_class_0::InstPrefetch                 0      0.00%    100.00% # Class of committed instruction
system.cpu.op_class_0::total                109431274                       # Class of committed instruction
system.cpu.tickCycles                       110767152                       # Number of cycles that the object actually ticked
system.cpu.workload.numSyscalls                    87                       # Number of system calls
system.membus.snoop_filter.hit_multi_requests            0                       # Number of requests hitting in the snoop filter with multiple (>1) holders of the requested data.
system.membus.snoop_filter.hit_multi_snoops            0                       # Number of snoops hitting in the snoop filter with multiple (>1) holders of the requested data.
system.membus.snoop_filter.hit_single_requests        37829                       # Number of requests hitting in the snoop filter with a single holder of the requested data.
system.membus.snoop_filter.hit_single_snoops            0                       # Number of snoops hitting in the snoop filter with a single holder of the requested data.
system.membus.snoop_filter.tot_requests         84303                       # Total number of requests made to the snoop filter.
system.membus.snoop_filter.tot_snoops               0                       # Total number of snoops made to the snoop filter.
system.tol2bus.snoop_filter.hit_multi_requests        49321                       # Number of requests hitting in the snoop filter with multiple (>1) holders of the requested data.
system.tol2bus.snoop_filter.hit_multi_snoops            0                       # Number of snoops hitting in the snoop filter with multiple (>1) holders of the requested data.
system.tol2bus.snoop_filter.hit_single_requests       446122                       # Number of requests hitting in the snoop filter with a single holder of the requested data.
system.tol2bus.snoop_filter.hit_single_snoops          467                       # Number of snoops hitting in the snoop filter with a single holder of the requested data.
system.tol2bus.snoop_filter.tot_requests       892822                       # Total number of requests made to the snoop filter.
system.tol2bus.snoop_filter.tot_snoops            467                       # Total number of snoops made to the snoop filter.
system.clk_domain.clock                          1000                       # Clock period in ticks
system.cpu.branchPred.lookups                20406114                       # Number of BP lookups
system.cpu.branchPred.condPredicted          16343276                       # Number of conditional branches predicted
system.cpu.branchPred.condIncorrect             53580                       # Number of conditional branches incorrect
system.cpu.branchPred.BTBLookups              8737606                       # Number of BTB lookups
system.cpu.branchPred.BTBHits                 8736219                       # Number of BTB hits
system.cpu.branchPred.BTBHitPct             99.984126                       # BTB Hit Percentage
system.cpu.branchPred.RASUsed                 1050620                       # Number of times the RAS was used to get a target.
system.cpu.branchPred.RASIncorrect                327                       # Number of incorrect RAS predictions.
system.cpu.branchPred.indirectLookups          434172                       # Number of indirect predictor lookups.
system.cpu.branchPred.indirectHits             300033                       # Number of indirect target hits.
system.cpu.branchPred.indirectMisses           134139                       # Number of indirect misses.
system.cpu.branchPred.indirectMispredicted         1092                       # Number of mispredicted indirect branches.
system.cpu.dcache.demand_hits::.cpu.data     35179187                       # number of demand (read+write) hits
system.cpu.dcache.demand_hits::total         35179187                       # number of demand (read+write) hits
system.cpu.dcache.overall_hits::.cpu.data     35182271                       # number of overall hits
system.cpu.dcache.overall_hits::total        35182271                       # number of overall hits
system.cpu.dcache.demand_misses::.cpu.data       506592                       # number of demand (read+write) misses
system.cpu.dcache.demand_misses::total         506592                       # number of demand (read+write) misses
system.cpu.dcache.overall_misses::.cpu.data       506869                       # number of overall misses
system.cpu.dcache.overall_misses::total        506869                       # number of overall misses
system.cpu.dcache.demand_miss_latency::.cpu.data  10780058000                       # number of demand (read+write) miss cycles
system.cpu.dcache.demand_miss_latency::total  10780058000                       # number of demand (read+write) miss cycles
system.cpu.dcache.overall_miss_latency::.cpu.data  10780058000                       # number of overall miss cycles
system.cpu.dcache.overall_miss_latency::total  10780058000                       # number of overall miss cycles
system.cpu.dcache.demand_accesses::.cpu.data     35685779                       # number of demand (read+write) accesses
system.cpu.dcache.demand_accesses::total     35685779                       # number of demand (read+write) accesses
system.cpu.dcache.overall_accesses::.cpu.data     35689140                       # number of overall (read+write) accesses
system.cpu.dcache.overall_accesses::total     35689140                       # number of overall (read+write) accesses
system.cpu.dcache.demand_miss_rate::.cpu.data     0.014196                       # miss rate for demand accesses
system.cpu.dcache.demand_miss_rate::total     0.014196                       # miss rate for demand accesses
system.cpu.dcache.overall_miss_rate::.cpu.data     0.014202                       # miss rate for overall accesses
system.cpu.dcache.overall_miss_rate::total     0.014202                       # miss rate for overall accesses
system.cpu.dcache.demand_avg_miss_latency::.cpu.data 21279.566199                       # average overall miss latency
system.cpu.dcache.demand_avg_miss_latency::total 21279.566199                       # average overall miss latency
system.cpu.dcache.overall_avg_miss_latency::.cpu.data 21267.937080                       # average overall miss latency
system.cpu.dcache.overall_avg_miss_latency::total 21267.937080                       # average overall miss latency
system.cpu.dcache.blocked_cycles::no_mshrs            0                       # number of cycles access was blocked
system.cpu.dcache.blocked_cycles::no_targets            0                       # number of cycles access was blocked
system.cpu.dcache.blocked::no_mshrs                 0                       # number of cycles access was blocked
system.cpu.dcache.blocked::no_targets               0                       # number of cycles access was blocked
system.cpu.dcache.avg_blocked_cycles::no_mshrs          nan                       # average number of cycles each access was blocked
system.cpu.dcache.avg_blocked_cycles::no_targets          nan                       # average number of cycles each access was blocked
system.cpu.dcache.writebacks::.writebacks       222230                       # number of writebacks
system.cpu.dcache.writebacks::total            222230                       # number of writebacks
system.cpu.dcache.demand_mshr_hits::.cpu.data        60965                       # number of demand (read+write) MSHR hits
system.cpu.dcache.demand_mshr_hits::total        60965                       # number of demand (read+write) MSHR hits
system.cpu.dcache.overall_mshr_hits::.cpu.data        60965                       # number of overall MSHR hits
system.cpu.dcache.overall_mshr_hits::total        60965                       # number of overall MSHR hits
system.cpu.dcache.demand_mshr_misses::.cpu.data       445627                       # number of demand (read+write) MSHR misses
system.cpu.dcache.demand_mshr_misses::total       445627                       # number of demand (read+write) MSHR misses
system.cpu.dcache.overall_mshr_misses::.cpu.data       445899                       # number of overall MSHR misses
system.cpu.dcache.overall_mshr_misses::total       445899                       # number of overall MSHR misses
system.cpu.dcache.demand_mshr_miss_latency::.cpu.data   8786875500                       # number of demand (read+write) MSHR miss cycles
system.cpu.dcache.demand_mshr_miss_latency::total   8786875500                       # number of demand (read+write) MSHR miss cycles
system.cpu.dcache.overall_mshr_miss_latency::.cpu.data   8791383500                       # number of overall MSHR miss cycles
system.cpu.dcache.overall_mshr_miss_latency::total   8791383500                       # number of overall MSHR miss cycles
system.cpu.dcache.demand_mshr_miss_rate::.cpu.data     0.012488                       # mshr miss rate for demand accesses
system.cpu.dcache.demand_mshr_miss_rate::total     0.012488                       # mshr miss rate for demand accesses
system.cpu.dcache.overall_mshr_miss_rate::.cpu.data     0.012494                       # mshr miss rate for overall accesses
system.cpu.dcache.overall_mshr_miss_rate::total     0.012494                       # mshr miss rate for overall accesses
system.cpu.dcache.demand_avg_mshr_miss_latency::.cpu.data 19718.005193                       # average overall mshr miss latency
system.cpu.dcache.demand_avg_mshr_miss_latency::total 19718.005193                       # average overall mshr miss latency
system.cpu.dcache.overall_avg_mshr_miss_latency::.cpu.data 19716.087051                       # average overall mshr miss latency
system.cpu.dcache.overall_avg_mshr_miss_latency::total 19716.087051                       # average overall mshr miss latency
system.cpu.dcache.replacements                 445806                       # number of replacements
system.cpu.dcache.ReadReq_hits::.cpu.data     21040701                       # number of ReadReq hits
system.cpu.dcache.ReadReq_hits::total        21040701                       # number of ReadReq hits
system.cpu.dcache.ReadReq_misses::.cpu.data       390822                       # number of ReadReq misses
system.cpu.dcache.ReadReq_misses::total        390822                       # number of ReadReq misses
system.cpu.dcache.ReadReq_miss_latency::.cpu.data   5820142000                       # number of ReadReq miss cycles
system.cpu.dcache.ReadReq_miss_latency::total   5820142000                       # number of ReadReq miss cycles
system.cpu.dcache.ReadReq_accesses::.cpu.data     21431523                       # number of ReadReq accesses(hits+misses)
system.cpu.dcache.ReadReq_accesses::total     21431523                       # number of ReadReq accesses(hits+misses)
system.cpu.dcache.ReadReq_miss_rate::.cpu.data     0.018236                       # miss rate for ReadReq accesses
system.cpu.dcache.ReadReq_miss_rate::total     0.018236                       # miss rate for ReadReq accesses
system.cpu.dcache.ReadReq_avg_miss_latency::.cpu.data 14892.053160                       # average ReadReq miss latency
system.cpu.dcache.ReadReq_avg_miss_latency::total 14892.053160                       # average ReadReq miss latency
system.cpu.dcache.ReadReq_mshr_hits::.cpu.data        18513                       # number of ReadReq MSHR hits
system.cpu.dcache.ReadReq_mshr_hits::total        18513                       # number of ReadReq MSHR hits
system.cpu.dcache.ReadReq_mshr_misses::.cpu.data       372309                       # number of ReadReq MSHR misses
system.cpu.dcache.ReadReq_mshr_misses::total       372309                       # number of ReadReq MSHR misses
system.cpu.dcache.ReadReq_mshr_miss_latency::.cpu.data   5165589500                       # number of ReadReq MSHR miss cycles
system.cpu.dcache.ReadReq_mshr_miss_latency::total   5165589500                       # number of ReadReq MSHR miss cycles
system.cpu.dcache.ReadReq_mshr_miss_rate::.cpu.data     0.017372                       # mshr miss rate for ReadReq accesses
system.cpu.dcache.ReadReq_mshr_miss_rate::total     0.017372                       # mshr miss rate for ReadReq accesses
system.cpu.dcache.ReadReq_avg_mshr_miss_latency::.cpu.data 13874.468519                       # average ReadReq mshr miss latency
system.cpu.dcache.ReadReq_avg_mshr_miss_latency::total 13874.468519                       # average ReadReq mshr miss latency
system.cpu.dcache.WriteReq_hits::.cpu.data     14138486                       # number of WriteReq hits
system.cpu.dcache.WriteReq_hits::total       14138486                       # number of WriteReq hits
system.cpu.dcache.WriteReq_misses::.cpu.data       115770                       # number of WriteReq misses
system.cpu.dcache.WriteReq_misses::total       115770                       # number of WriteReq misses
system.cpu.dcache.WriteReq_miss_latency::.cpu.data   4959916000                       # number of WriteReq miss cycles
system.cpu.dcache.WriteReq_miss_latency::total   4959916000                       # number of WriteReq miss cycles
system.cpu.dcache.WriteReq_accesses::.cpu.data     14254256                       # number of WriteReq accesses(hits+misses)
system.cpu.dcache.WriteReq_accesses::total     14254256                       # number of WriteReq accesses(hits+misses)
system.cpu.dcache.WriteReq_miss_rate::.cpu.data     0.008122                       # miss rate for WriteReq accesses
system.cpu.dcache.WriteReq_miss_rate::total     0.008122                       # miss rate for WriteReq accesses
system.cpu.dcache.WriteReq_avg_miss_latency::.cpu.data 42842.843569                       # average WriteReq miss latency
system.cpu.dcache.WriteReq_avg_miss_latency::total 42842.843569                       # average WriteReq miss latency
system.cpu.dcache.WriteReq_mshr_hits::.cpu.data        42452                       # number of WriteReq MSHR hits
system.cpu.dcache.WriteReq_mshr_hits::total        42452                       # number of WriteReq MSHR hits
system.cpu.dcache.WriteReq_mshr_misses::.cpu.data        73318                       # number of WriteReq MSHR misses
system.cpu.dcache.WriteReq_mshr_misses::total        73318                       # number of WriteReq MSHR misses
system.cpu.dcache.WriteReq_mshr_miss_latency::.cpu.data   3621286000                       # number of WriteReq MSHR miss cycles
system.cpu.dcache.WriteReq_mshr_miss_latency::total   3621286000                       # number of WriteReq MSHR miss cycles
system.cpu.dcache.WriteReq_mshr_miss_rate::.cpu.data     0.005144                       # mshr miss rate for WriteReq accesses
system.cpu.dcache.WriteReq_mshr_miss_rate::total     0.005144                       # mshr miss rate for WriteReq accesses
system.cpu.dcache.WriteReq_avg_mshr_miss_latency::.cpu.data 49391.500041                       # average WriteReq mshr miss latency
system.cpu.dcache.WriteReq_avg_mshr_miss_latency::total 49391.500041                       # average WriteReq mshr miss latency
system.cpu.dcache.SoftPFReq_hits::.cpu.data         3084                       # number of SoftPFReq hits
system.cpu.dcache.SoftPFReq_hits::total          3084                       # number of SoftPFReq hits
system.cpu.dcache.SoftPFReq_misses::.cpu.data          277                       # number of SoftPFReq misses
system.cpu.dcache.SoftPFReq_misses::total          277                       # number of SoftPFReq misses
system.cpu.dcache.SoftPFReq_accesses::.cpu.data         3361                       # number of SoftPFReq accesses(hits+misses)
system.cpu.dcache.SoftPFReq_accesses::total         3361                       # number of SoftPFReq accesses(hits+misses)
system.cpu.dcache.SoftPFReq_miss_rate::.cpu.data     0.082416                       # miss rate for SoftPFReq accesses
system.cpu.dcache.SoftPFReq_miss_rate::total     0.082416                       # miss rate for SoftPFReq accesses
system.cpu.dcache.SoftPFReq_mshr_misses::.cpu.data          272                       # number of SoftPFReq MSHR misses
system.cpu.dcache.SoftPFReq_mshr_misses::total          272                       # number of SoftPFReq MSHR misses
system.cpu.dcache.SoftPFReq_mshr_miss_latency::.cpu.data      4508000                       # number of SoftPFReq MSHR miss cycles
system.cpu.dcache.SoftPFReq_mshr_miss_latency::total      4508000                       # number of SoftPFReq MSHR miss cycles
system.cpu.dcache.SoftPFReq_mshr_miss_rate::.cpu.data     0.080928                       # mshr miss rate for SoftPFReq accesses
system.cpu.dcache.SoftPFReq_mshr_miss_rate::total     0.080928                       # mshr miss rate for SoftPFReq accesses
system.cpu.dcache.SoftPFReq_avg_mshr_miss_latency::.cpu.data 16573.529412                       # average SoftPFReq mshr miss latency
system.cpu.dcache.SoftPFReq_avg_mshr_miss_latency::total 16573.529412                       # average SoftPFReq mshr miss latency
system.cpu.dcache.LoadLockedReq_hits::.cpu.data        89066                       # number of LoadLockedReq hits
system.cpu.dcache.LoadLockedReq_hits::total        89066                       # number of LoadLockedReq hits
system.cpu.dcache.LoadLockedReq_misses::.cpu.data           35                       # number of LoadLockedReq misses
system.cpu.dcache.LoadLockedReq_misses::total           35                       # number of LoadLockedReq misses
system.cpu.dcache.LoadLockedReq_miss_latency::.cpu.data      1026000                       # number of LoadLockedReq miss cycles
system.cpu.dcache.LoadLockedReq_miss_latency::total      1026000                       # number of LoadLockedReq miss cycles
system.cpu.dcache.LoadLockedReq_accesses::.cpu.data        89101                       # number of LoadLockedReq accesses(hits+misses)
system.cpu.dcache.LoadLockedReq_accesses::total        89101                       # number of LoadLockedReq accesses(hits+misses)
system.cpu.dcache.LoadLockedReq_miss_rate::.cpu.data     0.000393                       # miss rate for LoadLockedReq accesses
system.cpu.dcache.LoadLockedReq_miss_rate::total     0.000393                       # miss rate for LoadLockedReq accesses
system.cpu.dcache.LoadLockedReq_avg_miss_latency::.cpu.data 29314.285714                       # average LoadLockedReq miss latency
system.cpu.dcache.LoadLockedReq_avg_miss_latency::total 29314.285714                       # average LoadLockedReq miss latency
system.cpu.dcache.LoadLockedReq_mshr_misses::.cpu.data           35                       # number of LoadLockedReq MSHR misses
system.cpu.dcache.LoadLockedReq_mshr_misses::total           35                       # number of LoadLockedReq MSHR misses
system.cpu.dcache.LoadLockedReq_mshr_miss_latency::.cpu.data       991000                       # number of LoadLockedReq MSHR miss cycles
system.cpu.dcache.LoadLockedReq_mshr_miss_latency::total       991000                       # number of LoadLockedReq MSHR miss cycles
system.cpu.dcache.LoadLockedReq_mshr_miss_rate::.cpu.data     0.000393                       # mshr miss rate for LoadLockedReq accesses
system.cpu.dcache.LoadLockedReq_mshr_miss_rate::total     0.000393                       # mshr miss rate for LoadLockedReq accesses
system.cpu.dcache.LoadLockedReq_avg_mshr_miss_latency::.cpu.data 28314.285714                       # average LoadLockedReq mshr miss latency
system.cpu.dcache.LoadLockedReq_avg_mshr_miss_latency::total 28314.285714                       # average LoadLockedReq mshr miss latency
system.cpu.dcache.StoreCondReq_hits::.cpu.data        89080                       # number of StoreCondReq hits
system.cpu.dcache.StoreCondReq_hits::total        89080                       # number of StoreCondReq hits
system.cpu.dcache.StoreCondReq_accesses::.cpu.data        89080                       # number of StoreCondReq accesses(hits+misses)
system.cpu.dcache.StoreCondReq_accesses::total        89080                       # number of StoreCondReq accesses(hits+misses)
system.cpu.dcache.power_state.pwrStateResidencyTicks::UNDEFINED  61797931500                       # Cumulative time (in ticks) in various power states
system.cpu.dcache.tags.tagsinuse           127.928780                       # Cycle average of tags in use
system.cpu.dcache.tags.total_refs            35806351                       # Total number of references to valid blocks.
system.cpu.dcache.tags.sampled_refs            445934                       # Sample count of references to valid blocks.
system.cpu.dcache.tags.avg_refs             80.295180                       # Average number of references to valid blocks.
system.cpu.dcache.tags.warmup_cycle            176500                       # Cycle when the warmup percentage was hit.
system.cpu.dcache.tags.occ_blocks::.cpu.data   127.928780                       # Average occupied blocks per requestor
system.cpu.dcache.tags.occ_percent::.cpu.data     0.999444                       # Average percentage of cache occupancy
system.cpu.dcache.tags.occ_percent::total     0.999444                       # Average percentage of cache occupancy
system.cpu.dcache.tags.occ_task_id_blocks::1024          128                       # Occupied blocks per task id
system.cpu.dcache.tags.age_task_id_blocks_1024::0           12                       # Occupied blocks per task id
system.cpu.dcache.tags.age_task_id_blocks_1024::1           66                       # Occupied blocks per task id
system.cpu.dcache.tags.age_task_id_blocks_1024::2           50                       # Occupied blocks per task id
system.cpu.dcache.tags.occ_task_id_percent::1024            1                       # Percentage of cache occupancy per task id
system.cpu.dcache.tags.tag_accesses          36313255                       # Number of tag accesses
system.cpu.dcache.tags.data_accesses         36313255                       # Number of data accesses
system.cpu.dcache.tags.power_state.pwrStateResidencyTicks::UNDEFINED  61797931500                       # Cumulative time (in ticks) in various power states
system.cpu.dtb.instHits                             0                       # ITB inst hits
system.cpu.dtb.instMisses                           0                       # ITB inst misses
system.cpu.dtb.readHits                             0                       # DTB read hits
system.cpu.dtb.readMisses                           0                       # DTB read misses
system.cpu.dtb.writeHits                            0                       # DTB write hits
system.cpu.dtb.writeMisses                          0                       # DTB write misses
system.cpu.dtb.inserts                              0                       # Number of times an entry is inserted into the TLB
system.cpu.dtb.flushTlb                             0                       # Number of times complete TLB was flushed
system.cpu.dtb.flushTlbMva                          0                       # Number of times TLB was flushed by MVA
system.cpu.dtb.flushTlbMvaAsid                      0                       # Number of times TLB was flushed by MVA & ASID
system.cpu.dtb.flushTlbAsid                         0                       # Number of times TLB was flushed by ASID
system.cpu.dtb.flushedEntries                       0                       # Number of entries that have been flushed from TLB
system.cpu.dtb.alignFaults                          0                       # Number of TLB faults due to alignment restrictions
system.cpu.dtb.prefetchFaults                       0                       # Number of TLB faults due to prefetch
system.cpu.dtb.domainFaults                         0                       # Number of TLB faults due to domain restrictions
system.cpu.dtb.permsFaults                          0                       # Number of TLB faults due to permissions restrictions
system.cpu.dtb.readAccesses                         0                       # DTB read accesses
system.cpu.dtb.writeAccesses                        0                       # DTB write accesses
system.cpu.dtb.instAccesses                         0                       # ITB inst accesses
system.cpu.dtb.hits                                 0                       # Total TLB (inst and data) hits
system.cpu.dtb.misses                               0                       # Total TLB (inst and data) misses
system.cpu.dtb.accesses                             0                       # Total TLB (inst and data) accesses
system.cpu.dtb.stage2_mmu.stage2_tlb.instHits            0                       # ITB inst hits
system.cpu.dtb.stage2_mmu.stage2_tlb.instMisses            0                       # ITB inst misses
system.cpu.dtb.stage2_mmu.stage2_tlb.readHits            0                       # DTB read hits
system.cpu.dtb.stage2_mmu.stage2_tlb.readMisses            0                       # DTB read misses
system.cpu.dtb.stage2_mmu.stage2_tlb.writeHits            0                       # DTB write hits
system.cpu.dtb.stage2_mmu.stage2_tlb.writeMisses            0                       # DTB write misses
system.cpu.dtb.stage2_mmu.stage2_tlb.inserts            0                       # Number of times an entry is inserted into the TLB
system.cpu.dtb.stage2_mmu.stage2_tlb.flushTlb            0                       # Number of times complete TLB was flushed
system.cpu.dtb.stage2_mmu.stage2_tlb.flushTlbMva            0                       # Number of times TLB was flushed by MVA
system.cpu.dtb.stage2_mmu.stage2_tlb.flushTlbMvaAsid            0                       # Number of times TLB was flushed by MVA & ASID
system.cpu.dtb.stage2_mmu.stage2_tlb.flushTlbAsid            0                       # Number of times TLB was flushed by ASID
system.cpu.dtb.stage2_mmu.stage2_tlb.flushedEntries            0                       # Number of entries that have been flushed from TLB
system.cpu.dtb.stage2_mmu.stage2_tlb.alignFaults            0                       # Number of TLB faults due to alignment restrictions
system.cpu.dtb.stage2_mmu.stage2_tlb.prefetchFaults            0                       # Number of TLB faults due to prefetch
system.cpu.dtb.stage2_mmu.stage2_tlb.domainFaults            0                       # Number of TLB faults due to domain restrictions
system.cpu.dtb.stage2_mmu.stage2_tlb.permsFaults            0                       # Number of TLB faults due to permissions restrictions
system.cpu.dtb.stage2_mmu.stage2_tlb.readAccesses            0                       # DTB read accesses
system.cpu.dtb.stage2_mmu.stage2_tlb.writeAccesses            0                       # DTB write accesses
system.cpu.dtb.stage2_mmu.stage2_tlb.instAccesses            0                       # ITB inst accesses
system.cpu.dtb.stage2_mmu.stage2_tlb.hits            0                       # Total TLB (inst and data) hits
system.cpu.dtb.stage2_mmu.stage2_tlb.misses            0                       # Total TLB (inst and data) misses
system.cpu.dtb.stage2_mmu.stage2_tlb.accesses            0                       # Total TLB (inst and data) accesses
system.cpu.dtb.stage2_mmu.stage2_tlb.walker.walks            0                       # Table walker walks requested
system.cpu.dtb.stage2_mmu.stage2_tlb.walker.requestOrigin_Requested::Data            0                       # Table walker requests started/completed, data/inst
system.cpu.dtb.stage2_mmu.stage2_tlb.walker.requestOrigin_Requested::Inst            0                       # Table walker requests started/completed, data/inst
system.cpu.dtb.stage2_mmu.stage2_tlb.walker.requestOrigin_Requested::total            0                       # Table walker requests started/completed, data/inst
system.cpu.dtb.stage2_mmu.stage2_tlb.walker.requestOrigin_Completed::Data            0                       # Table walker requests started/completed, data/inst
system.cpu.dtb.stage2_mmu.stage2_tlb.walker.requestOrigin_Completed::Inst            0                       # Table walker requests started/completed, data/inst
system.cpu.dtb.stage2_mmu.stage2_tlb.walker.requestOrigin_Completed::total            0                       # Table walker requests started/completed, data/inst
system.cpu.dtb.stage2_mmu.stage2_tlb.walker.requestOrigin::total            0                       # Table walker requests started/completed, data/inst
system.cpu.dtb.stage2_mmu.stage2_tlb.walker.power_state.pwrStateResidencyTicks::UNDEFINED  61797931500                       # Cumulative time (in ticks) in various power states
system.cpu.dtb.walker.walks                         0                       # Table walker walks requested
system.cpu.dtb.walker.requestOrigin_Requested::Data            0                       # Table walker requests started/completed, data/inst
system.cpu.dtb.walker.requestOrigin_Requested::Inst            0                       # Table walker requests started/completed, data/inst
system.cpu.dtb.walker.requestOrigin_Requested::total            0                       # Table walker requests started/completed, data/inst
system.cpu.dtb.walker.requestOrigin_Completed::Data            0                       # Table walker requests started/completed, data/inst
system.cpu.dtb.walker.requestOrigin_Completed::Inst            0                       # Table walker requests started/completed, data/inst
system.cpu.dtb.walker.requestOrigin_Completed::total            0                       # Table walker requests started/completed, data/inst
system.cpu.dtb.walker.requestOrigin::total            0                       # Table walker requests started/completed, data/inst
system.cpu.dtb.walker.power_state.pwrStateResidencyTicks::UNDEFINED  61797931500                       # Cumulative time (in ticks) in various power states
system.cpu.fetch2.intInstructions            49285726                       # Number of integer instructions successfully decoded
system.cpu.fetch2.fpInstructions                    0                       # Number of floating point instructions successfully decoded
system.cpu.fetch2.vecInstructions                   0                       # Number of SIMD instructions successfully decoded
system.cpu.fetch2.loadInstructions           17107319                       # Number of memory load instructions successfully decoded
system.cpu.fetch2.storeInstructions           9764689                       # Number of memory store instructions successfully decoded
system.cpu.fetch2.amoInstructions                   0                       # Number of memory atomic instructions successfully decoded
system.cpu.icache.demand_hits::.cpu.inst     28383795                       # number of demand (read+write) hits
system.cpu.icache.demand_hits::total         28383795                       # number of demand (read+write) hits
system.cpu.icache.overall_hits::.cpu.inst     28383795                       # number of overall hits
system.cpu.icache.overall_hits::total        28383795                       # number of overall hits
system.cpu.icache.demand_misses::.cpu.inst          770                       # number of demand (read+write) misses
system.cpu.icache.demand_misses::total            770                       # number of demand (read+write) misses
system.cpu.icache.overall_misses::.cpu.inst          770                       # number of overall misses
system.cpu.icache.overall_misses::total           770                       # number of overall misses
system.cpu.icache.demand_miss_latency::.cpu.inst     43905500                       # number of demand (read+write) miss cycles
system.cpu.icache.demand_miss_latency::total     43905500                       # number of demand (read+write) miss cycles
system.cpu.icache.overall_miss_latency::.cpu.inst     43905500                       # number of overall miss cycles
system.cpu.icache.overall_miss_latency::total     43905500                       # number of overall miss cycles
system.cpu.icache.demand_accesses::.cpu.inst     28384565                       # number of demand (read+write) accesses
system.cpu.icache.demand_accesses::total     28384565                       # number of demand (read+write) accesses
system.cpu.icache.overall_accesses::.cpu.inst     28384565                       # number of overall (read+write) accesses
system.cpu.icache.overall_accesses::total     28384565                       # number of overall (read+write) accesses
system.cpu.icache.demand_miss_rate::.cpu.inst     0.000027                       # miss rate for demand accesses
system.cpu.icache.demand_miss_rate::total     0.000027                       # miss rate for demand accesses
system.cpu.icache.overall_miss_rate::.cpu.inst     0.000027                       # miss rate for overall accesses
system.cpu.icache.overall_miss_rate::total     0.000027                       # miss rate for overall accesses
system.cpu.icache.demand_avg_miss_latency::.cpu.inst 57020.129870                       # average overall miss latency
system.cpu.icache.demand_avg_miss_latency::total 57020.129870                       # average overall miss latency
system.cpu.icache.overall_avg_miss_latency::.cpu.inst 57020.129870                       # average overall miss latency
system.cpu.icache.overall_avg_miss_latency::total 57020.129870                       # average overall miss latency
system.cpu.icache.blocked_cycles::no_mshrs            0                       # number of cycles access was blocked
system.cpu.icache.blocked_cycles::no_targets            0                       # number of cycles access was blocked
system.cpu.icache.blocked::no_mshrs                 0                       # number of cycles access was blocked
system.cpu.icache.blocked::no_targets               0                       # number of cycles access was blocked
system.cpu.icache.avg_blocked_cycles::no_mshrs          nan                       # average number of cycles each access was blocked
system.cpu.icache.avg_blocked_cycles::no_targets          nan                       # average number of cycles each access was blocked
system.cpu.icache.writebacks::.writebacks          312                       # number of writebacks
system.cpu.icache.writebacks::total               312                       # number of writebacks
system.cpu.icache.demand_mshr_misses::.cpu.inst          770                       # number of demand (read+write) MSHR misses
system.cpu.icache.demand_mshr_misses::total          770                       # number of demand (read+write) MSHR misses
system.cpu.icache.overall_mshr_misses::.cpu.inst          770                       # number of overall MSHR misses
system.cpu.icache.overall_mshr_misses::total          770                       # number of overall MSHR misses
system.cpu.icache.demand_mshr_miss_latency::.cpu.inst     43135500                       # number of demand (read+write) MSHR miss cycles
system.cpu.icache.demand_mshr_miss_latency::total     43135500                       # number of demand (read+write) MSHR miss cycles
system.cpu.icache.overall_mshr_miss_latency::.cpu.inst     43135500                       # number of overall MSHR miss cycles
system.cpu.icache.overall_mshr_miss_latency::total     43135500                       # number of overall MSHR miss cycles
system.cpu.icache.demand_mshr_miss_rate::.cpu.inst     0.000027                       # mshr miss rate for demand accesses
system.cpu.icache.demand_mshr_miss_rate::total     0.000027                       # mshr miss rate for demand accesses
system.cpu.icache.overall_mshr_miss_rate::.cpu.inst     0.000027                       # mshr miss rate for overall accesses
system.cpu.icache.overall_mshr_miss_rate::total     0.000027                       # mshr miss rate for overall accesses
system.cpu.icache.demand_avg_mshr_miss_latency::.cpu.inst 56020.129870                       # average overall mshr miss latency
system.cpu.icache.demand_avg_mshr_miss_latency::total 56020.129870                       # average overall mshr miss latency
system.cpu.icache.overall_avg_mshr_miss_latency::.cpu.inst 56020.129870                       # average overall mshr miss latency
system.cpu.icache.overall_avg_mshr_miss_latency::total 56020.129870                       # average overall mshr miss latency
system.cpu.icache.replacements                    312                       # number of replacements
system.cpu.icache.ReadReq_hits::.cpu.inst     28383795                       # number of ReadReq hits
system.cpu.icache.ReadReq_hits::total        28383795                       # number of ReadReq hits
system.cpu.icache.ReadReq_misses::.cpu.inst          770                       # number of ReadReq misses
system.cpu.icache.ReadReq_misses::total           770                       # number of ReadReq misses
system.cpu.icache.ReadReq_miss_latency::.cpu.inst     43905500                       # number of ReadReq miss cycles
system.cpu.icache.ReadReq_miss_latency::total     43905500                       # number of ReadReq miss cycles
system.cpu.icache.ReadReq_accesses::.cpu.inst     28384565                       # number of ReadReq accesses(hits+misses)
system.cpu.icache.ReadReq_accesses::total     28384565                       # number of ReadReq accesses(hits+misses)
system.cpu.icache.ReadReq_miss_rate::.cpu.inst     0.000027                       # miss rate for ReadReq accesses
system.cpu.icache.ReadReq_miss_rate::total     0.000027                       # miss rate for ReadReq accesses
system.cpu.icache.ReadReq_avg_miss_latency::.cpu.inst 57020.129870                       # average ReadReq miss latency
system.cpu.icache.ReadReq_avg_miss_latency::total 57020.129870                       # average ReadReq miss latency
system.cpu.icache.ReadReq_mshr_misses::.cpu.inst          770                       # number of ReadReq MSHR misses
system.cpu.icache.ReadReq_mshr_misses::total          770                       # number of ReadReq MSHR misses
system.cpu.icache.ReadReq_mshr_miss_latency::.cpu.inst     43135500                       # number of ReadReq MSHR miss cycles
system.cpu.icache.ReadReq_mshr_miss_latency::total     43135500                       # number of ReadReq MSHR miss cycles
system.cpu.icache.ReadReq_mshr_miss_rate::.cpu.inst     0.000027                       # mshr miss rate for ReadReq accesses
system.cpu.icache.ReadReq_mshr_miss_rate::total     0.000027                       # mshr miss rate for ReadReq accesses
system.cpu.icache.ReadReq_avg_mshr_miss_latency::.cpu.inst 56020.129870                       # average ReadReq mshr miss latency
system.cpu.icache.ReadReq_avg_mshr_miss_latency::total 56020.129870                       # average ReadReq mshr miss latency
system.cpu.icache.power_state.pwrStateResidencyTicks::UNDEFINED  61797931500                       # Cumulative time (in ticks) in various power states
system.cpu.icache.tags.tagsinuse           456.976350                       # Cycle average of tags in use
system.cpu.icache.tags.total_refs            28384565                       # Total number of references to valid blocks.
system.cpu.icache.tags.sampled_refs               770                       # Sample count of references to valid blocks.
system.cpu.icache.tags.avg_refs          36863.071429                       # Average number of references to valid blocks.
system.cpu.icache.tags.warmup_cycle             87500                       # Cycle when the warmup percentage was hit.
system.cpu.icache.tags.occ_blocks::.cpu.inst   456.976350                       # Average occupied blocks per requestor
system.cpu.icache.tags.occ_percent::.cpu.inst     0.446266                       # Average percentage of cache occupancy
system.cpu.icache.tags.occ_percent::total     0.446266                       # Average percentage of cache occupancy
system.cpu.icache.tags.occ_task_id_blocks::1024          458                       # Occupied blocks per task id
system.cpu.icache.tags.age_task_id_blocks_1024::2            1                       # Occupied blocks per task id
system.cpu.icache.tags.age_task_id_blocks_1024::4          457                       # Occupied blocks per task id
system.cpu.icache.tags.occ_task_id_percent::1024     0.447266                       # Percentage of cache occupancy per task id
system.cpu.icache.tags.tag_accesses          28385335                       # Number of tag accesses
system.cpu.icache.tags.data_accesses         28385335                       # Number of data accesses
system.cpu.icache.tags.power_state.pwrStateResidencyTicks::UNDEFINED  61797931500                       # Cumulative time (in ticks) in various power states
system.cpu.itb.instHits                             0                       # ITB inst hits
system.cpu.itb.instMisses                           0                       # ITB inst misses
system.cpu.itb.readHits                             0                       # DTB read hits
system.cpu.itb.readMisses                           0                       # DTB read misses
system.cpu.itb.writeHits                            0                       # DTB write hits
system.cpu.itb.writeMisses                          0                       # DTB write misses
system.cpu.itb.inserts                              0                       # Number of times an entry is inserted into the TLB
system.cpu.itb.flushTlb                             0                       # Number of times complete TLB was flushed
system.cpu.itb.flushTlbMva                          0                       # Number of times TLB was flushed by MVA
system.cpu.itb.flushTlbMvaAsid                      0                       # Number of times TLB was flushed by MVA & ASID
system.cpu.itb.flushTlbAsid                         0                       # Number of times TLB was flushed by ASID
system.cpu.itb.flushedEntries                       0                       # Number of entries that have been flushed from TLB
system.cpu.itb.alignFaults                          0                       # Number of TLB faults due to alignment restrictions
system.cpu.itb.prefetchFaults                       0                       # Number of TLB faults due to prefetch
system.cpu.itb.domainFaults                         0                       # Number of TLB faults due to domain restrictions
system.cpu.itb.permsFaults                          0                       # Number of TLB faults due to permissions restrictions
system.cpu.itb.readAccesses                         0                       # DTB read accesses
system.cpu.itb.writeAccesses                        0                       # DTB write accesses
system.cpu.itb.instAccesses                         0                       # ITB inst accesses
system.cpu.itb.hits                                 0                       # Total TLB (inst and data) hits
system.cpu.itb.misses                               0                       # Total TLB (inst and data) misses
system.cpu.itb.accesses                             0                       # Total TLB (inst and data) accesses
system.cpu.itb.stage2_mmu.stage2_tlb.instHits            0                       # ITB inst hits
system.cpu.itb.stage2_mmu.stage2_tlb.instMisses            0                       # ITB inst misses
system.cpu.itb.stage2_mmu.stage2_tlb.readHits            0                       # DTB read hits
system.cpu.itb.stage2_mmu.stage2_tlb.readMisses            0                       # DTB read misses
system.cpu.itb.stage2_mmu.stage2_tlb.writeHits            0                       # DTB write hits
system.cpu.itb.stage2_mmu.stage2_tlb.writeMisses            0                       # DTB write misses
system.cpu.itb.stage2_mmu.stage2_tlb.inserts            0                       # Number of times an entry is inserted into the TLB
system.cpu.itb.stage2_mmu.stage2_tlb.flushTlb            0                       # Number of times complete TLB was flushed
system.cpu.itb.stage2_mmu.stage2_tlb.flushTlbMva            0                       # Number of times TLB was flushed by MVA
system.cpu.itb.stage2_mmu.stage2_tlb.flushTlbMvaAsid            0                       # Number of times TLB was flushed by MVA & ASID
system.cpu.itb.stage2_mmu.stage2_tlb.flushTlbAsid            0                       # Number of times TLB was flushed by ASID
system.cpu.itb.stage2_mmu.stage2_tlb.flushedEntries            0                       # Number of entries that have been flushed from TLB
system.cpu.itb.stage2_mmu.stage2_tlb.alignFaults            0                       # Number of TLB faults due to alignment restrictions
system.cpu.itb.stage2_mmu.stage2_tlb.prefetchFaults            0                       # Number of TLB faults due to prefetch
system.cpu.itb.stage2_mmu.stage2_tlb.domainFaults            0                       # Number of TLB faults due to domain restrictions
system.cpu.itb.stage2_mmu.stage2_tlb.permsFaults            0                       # Number of TLB faults due to permissions restrictions
system.cpu.itb.stage2_mmu.stage2_tlb.readAccesses            0                       # DTB read accesses
system.cpu.itb.stage2_mmu.stage2_tlb.writeAccesses            0                       # DTB write accesses
system.cpu.itb.stage2_mmu.stage2_tlb.instAccesses            0                       # ITB inst accesses
system.cpu.itb.stage2_mmu.stage2_tlb.hits            0                       # Total TLB (inst and data) hits
system.cpu.itb.stage2_mmu.stage2_tlb.misses            0                       # Total TLB (inst and data) misses
system.cpu.itb.stage2_mmu.stage2_tlb.accesses            0                       # Total TLB (inst and data) accesses
system.cpu.itb.stage2_mmu.stage2_tlb.walker.walks            0                       # Table walker walks requested
system.cpu.itb.stage2_mmu.stage2_tlb.walker.requestOrigin_Requested::Data            0                       # Table walker requests started/completed, data/inst
system.cpu.itb.stage2_mmu.stage2_tlb.walker.requestOrigin_Requested::Inst            0                       # Table walker requests started/completed, data/inst
system.cpu.itb.stage2_mmu.stage2_tlb.walker.requestOrigin_Requested::total            0                       # Table walker requests started/completed, data/inst
system.cpu.itb.stage2_mmu.stage2_tlb.walker.requestOrigin_Completed::Data            0                       # Table walker requests started/completed, data/inst
system.cpu.itb.stage2_mmu.stage2_tlb.walker.requestOrigin_Completed::Inst            0                       # Table walker requests started/completed, data/inst
system.cpu.itb.stage2_mmu.stage2_tlb.walker.requestOrigin_Completed::total            0                       # Table walker requests started/completed, data/inst
system.cpu.itb.stage2_mmu.stage2_tlb.walker.requestOrigin::total            0                       # Table walker requests started/completed, data/inst
system.cpu.itb.stage2_mmu.stage2_tlb.walker.power_state.pwrStateResidencyTicks::UNDEFINED  61797931500                       # Cumulative time (in ticks) in various power states
system.cpu.itb.walker.walks                         0                       # Table walker walks requested
system.cpu.itb.walker.requestOrigin_Requested::Data            0                       # Table walker requests started/completed, data/inst
system.cpu.itb.walker.requestOrigin_Requested::Inst            0                       # Table walker requests started/completed, data/inst
system.cpu.itb.walker.requestOrigin_Requested::total            0                       # Table walker requests started/completed, data/inst
system.cpu.itb.walker.requestOrigin_Completed::Data            0                       # Table walker requests started/completed, data/inst
system.cpu.itb.walker.requestOrigin_Completed::Inst            0                       # Table walker requests started/completed, data/inst
system.cpu.itb.walker.requestOrigin_Completed::total            0                       # Table walker requests started/completed, data/inst
system.cpu.itb.walker.requestOrigin::total            0                       # Table walker requests started/completed, data/inst
system.cpu.itb.walker.power_state.pwrStateResidencyTicks::UNDEFINED  61797931500                       # Cumulative time (in ticks) in various power states
system.cpu.power_state.pwrStateResidencyTicks::ON  61797931500                       # Cumulative time (in ticks) in various power states
system.cpu.thread0.numInsts                 100000001                       # Number of Instructions committed
system.cpu.thread0.numOps                   109431274                       # Number of Ops committed
system.cpu.thread0.numMemRefs                       0                       # Number of Memory References
system.cpu_clk_domain.clock                       500                       # Clock period in ticks
system.cpu_voltage_domain.voltage                   1                       # Voltage in Volts
system.l2.demand_hits::.cpu.inst                  249                       # number of demand (read+write) hits
system.l2.demand_hits::.cpu.data               399975                       # number of demand (read+write) hits
system.l2.demand_hits::total                   400224                       # number of demand (read+write) hits
system.l2.overall_hits::.cpu.inst                 249                       # number of overall hits
system.l2.overall_hits::.cpu.data              399975                       # number of overall hits
system.l2.overall_hits::total                  400224                       # number of overall hits
system.l2.demand_misses::.cpu.inst                521                       # number of demand (read+write) misses
system.l2.demand_misses::.cpu.data              45959                       # number of demand (read+write) misses
system.l2.demand_misses::total                  46480                       # number of demand (read+write) misses
system.l2.overall_misses::.cpu.inst               521                       # number of overall misses
system.l2.overall_misses::.cpu.data             45959                       # number of overall misses
system.l2.overall_misses::total                 46480                       # number of overall misses
system.l2.demand_miss_latency::.cpu.inst     39360000                       # number of demand (read+write) miss cycles
system.l2.demand_miss_latency::.cpu.data   3722858000                       # number of demand (read+write) miss cycles
system.l2.demand_miss_latency::total       3762218000                       # number of demand (read+write) miss cycles
system.l2.overall_miss_latency::.cpu.inst     39360000                       # number of overall miss cycles
system.l2.overall_miss_latency::.cpu.data   3722858000                       # number of overall miss cycles
system.l2.overall_miss_latency::total      3762218000                       # number of overall miss cycles
system.l2.demand_accesses::.cpu.inst              770                       # number of demand (read+write) accesses
system.l2.demand_accesses::.cpu.data           445934                       # number of demand (read+write) accesses
system.l2.demand_accesses::total               446704                       # number of demand (read+write) accesses
system.l2.overall_accesses::.cpu.inst             770                       # number of overall (read+write) accesses
system.l2.overall_accesses::.cpu.data          445934                       # number of overall (read+write) accesses
system.l2.overall_accesses::total              446704                       # number of overall (read+write) accesses
system.l2.demand_miss_rate::.cpu.inst        0.676623                       # miss rate for demand accesses
system.l2.demand_miss_rate::.cpu.data        0.103062                       # miss rate for demand accesses
system.l2.demand_miss_rate::total            0.104051                       # miss rate for demand accesses
system.l2.overall_miss_rate::.cpu.inst       0.676623                       # miss rate for overall accesses
system.l2.overall_miss_rate::.cpu.data       0.103062                       # miss rate for overall accesses
system.l2.overall_miss_rate::total           0.104051                       # miss rate for overall accesses
system.l2.demand_avg_miss_latency::.cpu.inst 75547.024952                       # average overall miss latency
system.l2.demand_avg_miss_latency::.cpu.data 81003.894776                       # average overall miss latency
system.l2.demand_avg_miss_latency::total 80942.728055                       # average overall miss latency
system.l2.overall_avg_miss_latency::.cpu.inst 75547.024952                       # average overall miss latency
system.l2.overall_avg_miss_latency::.cpu.data 81003.894776                       # average overall miss latency
system.l2.overall_avg_miss_latency::total 80942.728055                       # average overall miss latency
system.l2.blocked_cycles::no_mshrs                  0                       # number of cycles access was blocked
system.l2.blocked_cycles::no_targets                0                       # number of cycles access was blocked
system.l2.blocked::no_mshrs                         0                       # number of cycles access was blocked
system.l2.blocked::no_targets                       0                       # number of cycles access was blocked
system.l2.avg_blocked_cycles::no_mshrs            nan                       # average number of cycles each access was blocked
system.l2.avg_blocked_cycles::no_targets          nan                       # average number of cycles each access was blocked
system.l2.writebacks::.writebacks               37653                       # number of writebacks
system.l2.writebacks::total                     37653                       # number of writebacks
system.l2.demand_mshr_hits::.cpu.inst               1                       # number of demand (read+write) MSHR hits
system.l2.demand_mshr_hits::.cpu.data               5                       # number of demand (read+write) MSHR hits
system.l2.demand_mshr_hits::total                   6                       # number of demand (read+write) MSHR hits
system.l2.overall_mshr_hits::.cpu.inst              1                       # number of overall MSHR hits
system.l2.overall_mshr_hits::.cpu.data              5                       # number of overall MSHR hits
system.l2.overall_mshr_hits::total                  6                       # number of overall MSHR hits
system.l2.demand_mshr_misses::.cpu.inst           520                       # number of demand (read+write) MSHR misses
system.l2.demand_mshr_misses::.cpu.data         45954                       # number of demand (read+write) MSHR misses
system.l2.demand_mshr_misses::total             46474                       # number of demand (read+write) MSHR misses
system.l2.overall_mshr_misses::.cpu.inst          520                       # number of overall MSHR misses
system.l2.overall_mshr_misses::.cpu.data        45954                       # number of overall MSHR misses
system.l2.overall_mshr_misses::total            46474                       # number of overall MSHR misses
system.l2.demand_mshr_miss_latency::.cpu.inst     34081500                       # number of demand (read+write) MSHR miss cycles
system.l2.demand_mshr_miss_latency::.cpu.data   3262992500                       # number of demand (read+write) MSHR miss cycles
system.l2.demand_mshr_miss_latency::total   3297074000                       # number of demand (read+write) MSHR miss cycles
system.l2.overall_mshr_miss_latency::.cpu.inst     34081500                       # number of overall MSHR miss cycles
system.l2.overall_mshr_miss_latency::.cpu.data   3262992500                       # number of overall MSHR miss cycles
system.l2.overall_mshr_miss_latency::total   3297074000                       # number of overall MSHR miss cycles
system.l2.demand_mshr_miss_rate::.cpu.inst     0.675325                       # mshr miss rate for demand accesses
system.l2.demand_mshr_miss_rate::.cpu.data     0.103051                       # mshr miss rate for demand accesses
system.l2.demand_mshr_miss_rate::total       0.104038                       # mshr miss rate for demand accesses
system.l2.overall_mshr_miss_rate::.cpu.inst     0.675325                       # mshr miss rate for overall accesses
system.l2.overall_mshr_miss_rate::.cpu.data     0.103051                       # mshr miss rate for overall accesses
system.l2.overall_mshr_miss_rate::total      0.104038                       # mshr miss rate for overall accesses
system.l2.demand_avg_mshr_miss_latency::.cpu.inst 65541.346154                       # average overall mshr miss latency
system.l2.demand_avg_mshr_miss_latency::.cpu.data 71005.625190                       # average overall mshr miss latency
system.l2.demand_avg_mshr_miss_latency::total 70944.485088                       # average overall mshr miss latency
system.l2.overall_avg_mshr_miss_latency::.cpu.inst 65541.346154                       # average overall mshr miss latency
system.l2.overall_avg_mshr_miss_latency::.cpu.data 71005.625190                       # average overall mshr miss latency
system.l2.overall_avg_mshr_miss_latency::total 70944.485088                       # average overall mshr miss latency
system.l2.replacements                          38292                       # number of replacements
system.l2.WritebackDirty_hits::.writebacks       222230                       # number of WritebackDirty hits
system.l2.WritebackDirty_hits::total           222230                       # number of WritebackDirty hits
system.l2.WritebackDirty_accesses::.writebacks       222230                       # number of WritebackDirty accesses(hits+misses)
system.l2.WritebackDirty_accesses::total       222230                       # number of WritebackDirty accesses(hits+misses)
system.l2.WritebackClean_hits::.writebacks          308                       # number of WritebackClean hits
system.l2.WritebackClean_hits::total              308                       # number of WritebackClean hits
system.l2.WritebackClean_accesses::.writebacks          308                       # number of WritebackClean accesses(hits+misses)
system.l2.WritebackClean_accesses::total          308                       # number of WritebackClean accesses(hits+misses)
system.l2.CleanEvict_mshr_misses::.writebacks            4                       # number of CleanEvict MSHR misses
system.l2.CleanEvict_mshr_misses::total             4                       # number of CleanEvict MSHR misses
system.l2.CleanEvict_mshr_miss_rate::.writebacks          inf                       # mshr miss rate for CleanEvict accesses
system.l2.CleanEvict_mshr_miss_rate::total          inf                       # mshr miss rate for CleanEvict accesses
system.l2.ReadExReq_hits::.cpu.data             34508                       # number of ReadExReq hits
system.l2.ReadExReq_hits::total                 34508                       # number of ReadExReq hits
system.l2.ReadExReq_misses::.cpu.data           38810                       # number of ReadExReq misses
system.l2.ReadExReq_misses::total               38810                       # number of ReadExReq misses
system.l2.ReadExReq_miss_latency::.cpu.data   3078656000                       # number of ReadExReq miss cycles
system.l2.ReadExReq_miss_latency::total    3078656000                       # number of ReadExReq miss cycles
system.l2.ReadExReq_accesses::.cpu.data         73318                       # number of ReadExReq accesses(hits+misses)
system.l2.ReadExReq_accesses::total             73318                       # number of ReadExReq accesses(hits+misses)
system.l2.ReadExReq_miss_rate::.cpu.data     0.529338                       # miss rate for ReadExReq accesses
system.l2.ReadExReq_miss_rate::total         0.529338                       # miss rate for ReadExReq accesses
system.l2.ReadExReq_avg_miss_latency::.cpu.data 79326.359186                       # average ReadExReq miss latency
system.l2.ReadExReq_avg_miss_latency::total 79326.359186                       # average ReadExReq miss latency
system.l2.ReadExReq_mshr_misses::.cpu.data        38810                       # number of ReadExReq MSHR misses
system.l2.ReadExReq_mshr_misses::total          38810                       # number of ReadExReq MSHR misses
system.l2.ReadExReq_mshr_miss_latency::.cpu.data   2690556000                       # number of ReadExReq MSHR miss cycles
system.l2.ReadExReq_mshr_miss_latency::total   2690556000                       # number of ReadExReq MSHR miss cycles
system.l2.ReadExReq_mshr_miss_rate::.cpu.data     0.529338                       # mshr miss rate for ReadExReq accesses
system.l2.ReadExReq_mshr_miss_rate::total     0.529338                       # mshr miss rate for ReadExReq accesses
system.l2.ReadExReq_avg_mshr_miss_latency::.cpu.data 69326.359186                       # average ReadExReq mshr miss latency
system.l2.ReadExReq_avg_mshr_miss_latency::total 69326.359186                       # average ReadExReq mshr miss latency
system.l2.ReadCleanReq_hits::.cpu.inst            249                       # number of ReadCleanReq hits
system.l2.ReadCleanReq_hits::total                249                       # number of ReadCleanReq hits
system.l2.ReadCleanReq_misses::.cpu.inst          521                       # number of ReadCleanReq misses
system.l2.ReadCleanReq_misses::total              521                       # number of ReadCleanReq misses
system.l2.ReadCleanReq_miss_latency::.cpu.inst     39360000                       # number of ReadCleanReq miss cycles
system.l2.ReadCleanReq_miss_latency::total     39360000                       # number of ReadCleanReq miss cycles
system.l2.ReadCleanReq_accesses::.cpu.inst          770                       # number of ReadCleanReq accesses(hits+misses)
system.l2.ReadCleanReq_accesses::total            770                       # number of ReadCleanReq accesses(hits+misses)
system.l2.ReadCleanReq_miss_rate::.cpu.inst     0.676623                       # miss rate for ReadCleanReq accesses
system.l2.ReadCleanReq_miss_rate::total      0.676623                       # miss rate for ReadCleanReq accesses
system.l2.ReadCleanReq_avg_miss_latency::.cpu.inst 75547.024952                       # average ReadCleanReq miss latency
system.l2.ReadCleanReq_avg_miss_latency::total 75547.024952                       # average ReadCleanReq miss latency
system.l2.ReadCleanReq_mshr_hits::.cpu.inst            1                       # number of ReadCleanReq MSHR hits
system.l2.ReadCleanReq_mshr_hits::total             1                       # number of ReadCleanReq MSHR hits
system.l2.ReadCleanReq_mshr_misses::.cpu.inst          520                       # number of ReadCleanReq MSHR misses
system.l2.ReadCleanReq_mshr_misses::total          520                       # number of ReadCleanReq MSHR misses
system.l2.ReadCleanReq_mshr_miss_latency::.cpu.inst     34081500                       # number of ReadCleanReq MSHR miss cycles
system.l2.ReadCleanReq_mshr_miss_latency::total     34081500                       # number of ReadCleanReq MSHR miss cycles
system.l2.ReadCleanReq_mshr_miss_rate::.cpu.inst     0.675325                       # mshr miss rate for ReadCleanReq accesses
system.l2.ReadCleanReq_mshr_miss_rate::total     0.675325                       # mshr miss rate for ReadCleanReq accesses
system.l2.ReadCleanReq_avg_mshr_miss_latency::.cpu.inst 65541.346154                       # average ReadCleanReq mshr miss latency
system.l2.ReadCleanReq_avg_mshr_miss_latency::total 65541.346154                       # average ReadCleanReq mshr miss latency
system.l2.ReadSharedReq_hits::.cpu.data        365467                       # number of ReadSharedReq hits
system.l2.ReadSharedReq_hits::total            365467                       # number of ReadSharedReq hits
system.l2.ReadSharedReq_misses::.cpu.data         7149                       # number of ReadSharedReq misses
system.l2.ReadSharedReq_misses::total            7149                       # number of ReadSharedReq misses
system.l2.ReadSharedReq_miss_latency::.cpu.data    644202000                       # number of ReadSharedReq miss cycles
system.l2.ReadSharedReq_miss_latency::total    644202000                       # number of ReadSharedReq miss cycles
system.l2.ReadSharedReq_accesses::.cpu.data       372616                       # number of ReadSharedReq accesses(hits+misses)
system.l2.ReadSharedReq_accesses::total        372616                       # number of ReadSharedReq accesses(hits+misses)
system.l2.ReadSharedReq_miss_rate::.cpu.data     0.019186                       # miss rate for ReadSharedReq accesses
system.l2.ReadSharedReq_miss_rate::total     0.019186                       # miss rate for ReadSharedReq accesses
system.l2.ReadSharedReq_avg_miss_latency::.cpu.data 90110.784725                       # average ReadSharedReq miss latency
system.l2.ReadSharedReq_avg_miss_latency::total 90110.784725                       # average ReadSharedReq miss latency
system.l2.ReadSharedReq_mshr_hits::.cpu.data            5                       # number of ReadSharedReq MSHR hits
system.l2.ReadSharedReq_mshr_hits::total            5                       # number of ReadSharedReq MSHR hits
system.l2.ReadSharedReq_mshr_misses::.cpu.data         7144                       # number of ReadSharedReq MSHR misses
system.l2.ReadSharedReq_mshr_misses::total         7144                       # number of ReadSharedReq MSHR misses
system.l2.ReadSharedReq_mshr_miss_latency::.cpu.data    572436500                       # number of ReadSharedReq MSHR miss cycles
system.l2.ReadSharedReq_mshr_miss_latency::total    572436500                       # number of ReadSharedReq MSHR miss cycles
system.l2.ReadSharedReq_mshr_miss_rate::.cpu.data     0.019173                       # mshr miss rate for ReadSharedReq accesses
system.l2.ReadSharedReq_mshr_miss_rate::total     0.019173                       # mshr miss rate for ReadSharedReq accesses
system.l2.ReadSharedReq_avg_mshr_miss_latency::.cpu.data 80128.289474                       # average ReadSharedReq mshr miss latency
system.l2.ReadSharedReq_avg_mshr_miss_latency::total 80128.289474                       # average ReadSharedReq mshr miss latency
system.l2.power_state.pwrStateResidencyTicks::UNDEFINED  61797931500                       # Cumulative time (in ticks) in various power states
system.l2.tags.tagsinuse                  7992.135940                       # Cycle average of tags in use
system.l2.tags.total_refs                      843491                       # Total number of references to valid blocks.
system.l2.tags.sampled_refs                     46484                       # Sample count of references to valid blocks.
system.l2.tags.avg_refs                     18.145835                       # Average number of references to valid blocks.
system.l2.tags.warmup_cycle                     77000                       # Cycle when the warmup percentage was hit.
system.l2.tags.occ_blocks::.writebacks       1.528823                       # Average occupied blocks per requestor
system.l2.tags.occ_blocks::.cpu.inst        29.651333                       # Average occupied blocks per requestor
system.l2.tags.occ_blocks::.cpu.data      7960.955783                       # Average occupied blocks per requestor
system.l2.tags.occ_percent::.writebacks      0.000187                       # Average percentage of cache occupancy
system.l2.tags.occ_percent::.cpu.inst        0.003620                       # Average percentage of cache occupancy
system.l2.tags.occ_percent::.cpu.data        0.971796                       # Average percentage of cache occupancy
system.l2.tags.occ_percent::total            0.975603                       # Average percentage of cache occupancy
system.l2.tags.occ_task_id_blocks::1024          8192                       # Occupied blocks per task id
system.l2.tags.age_task_id_blocks_1024::0            3                       # Occupied blocks per task id
system.l2.tags.age_task_id_blocks_1024::1           32                       # Occupied blocks per task id
system.l2.tags.age_task_id_blocks_1024::2          507                       # Occupied blocks per task id
system.l2.tags.age_task_id_blocks_1024::3         4219                       # Occupied blocks per task id
system.l2.tags.age_task_id_blocks_1024::4         3431                       # Occupied blocks per task id
system.l2.tags.occ_task_id_percent::1024            1                       # Percentage of cache occupancy per task id
system.l2.tags.tag_accesses                   1733486                       # Number of tag accesses
system.l2.tags.data_accesses                  1733486                       # Number of data accesses
system.l2.tags.power_state.pwrStateResidencyTicks::UNDEFINED  61797931500                       # Cumulative time (in ticks) in various power states
system.mem_ctrls.avgPriority_.writebacks::samples     37653.00                       # Average QoS priority value for accepted requests
system.mem_ctrls.avgPriority_.cpu.inst::samples       520.00                       # Average QoS priority value for accepted requests
system.mem_ctrls.avgPriority_.cpu.data::samples     45932.00                       # Average QoS priority value for accepted requests
system.mem_ctrls.priorityMinLatency      0.000000018750                       # per QoS priority minimum request to response latency (s)
system.mem_ctrls.priorityMaxLatency      0.003389885750                       # per QoS priority maximum request to response latency (s)
system.mem_ctrls.numReadWriteTurnArounds         2110                       # Number of turnarounds from READ to WRITE
system.mem_ctrls.numWriteReadTurnArounds         2110                       # Number of turnarounds from WRITE to READ
system.mem_ctrls.numStayReadState              145836                       # Number of times bus staying in READ state
system.mem_ctrls.numStayWriteState              35586                       # Number of times bus staying in WRITE state
system.mem_ctrls.readReqs                       46474                       # Number of read requests accepted
system.mem_ctrls.writeReqs                      37653                       # Number of write requests accepted
system.mem_ctrls.readBursts                     46474                       # Number of controller read bursts, including those serviced by the write queue
system.mem_ctrls.writeBursts                    37653                       # Number of controller write bursts, including those merged in the write queue
system.mem_ctrls.servicedByWrQ                     22                       # Number of controller read bursts serviced by the write queue
system.mem_ctrls.mergedWrBursts                     0                       # Number of controller write bursts merged with an existing one
system.mem_ctrls.neitherReadNorWriteReqs            0                       # Number of requests that are neither read nor write
system.mem_ctrls.avgRdQLen                       1.08                       # Average read queue length when enqueuing
system.mem_ctrls.avgWrQLen                      23.61                       # Average write queue length when enqueuing
system.mem_ctrls.numRdRetry                         0                       # Number of times read queue was full causing retry
system.mem_ctrls.numWrRetry                         0                       # Number of times write queue was full causing retry
[...]
system.mem_ctrls.dram.bw_write::.writebacks     38994703                       # Write bandwidth from this memory (bytes/s)
system.mem_ctrls.dram.bw_write::total        38994703                       # Write bandwidth from this memory (bytes/s)
system.mem_ctrls.dram.bw_total::.writebacks     38994703                       # Total bandwidth to/from this memory (bytes/s)
system.mem_ctrls.dram.bw_total::.cpu.inst       538529                       # Total bandwidth to/from this memory (bytes/s)
system.mem_ctrls.dram.bw_total::.cpu.data     47591496                       # Total bandwidth to/from this memory (bytes/s)
system.mem_ctrls.dram.bw_total::total        87124728                       # Total bandwidth to/from this memory (bytes/s)
system.mem_ctrls.dram.readBursts                46452                       # Number of DRAM read bursts
system.mem_ctrls.dram.writeBursts               37621                       # Number of DRAM write bursts
system.mem_ctrls.dram.perBankRdBursts::0         2959                       # Per bank write bursts
system.mem_ctrls.dram.perBankRdBursts::1         2829                       # Per bank write bursts
system.mem_ctrls.dram.perBankRdBursts::2         2881                       # Per bank write bursts
system.mem_ctrls.dram.perBankRdBursts::3         2974                       # Per bank write bursts
system.mem_ctrls.dram.perBankRdBursts::4         2969                       # Per bank write bursts
system.mem_ctrls.dram.perBankRdBursts::5         2735                       # Per bank write bursts
system.mem_ctrls.dram.perBankRdBursts::6         2870                       # Per bank write bursts
system.mem_ctrls.dram.perBankRdBursts::7         3022                       # Per bank write bursts
system.mem_ctrls.dram.perBankRdBursts::8         2843                       # Per bank write bursts
system.mem_ctrls.dram.perBankRdBursts::9         2894                       # Per bank write bursts
system.mem_ctrls.dram.perBankRdBursts::10         2988                       # Per bank write bursts
system.mem_ctrls.dram.perBankRdBursts::11         2898                       # Per bank write bursts
system.mem_ctrls.dram.perBankRdBursts::12         2891                       # Per bank write bursts
system.mem_ctrls.dram.perBankRdBursts::13         2939                       # Per bank write bursts
system.mem_ctrls.dram.perBankRdBursts::14         2889                       # Per bank write bursts
system.mem_ctrls.dram.perBankRdBursts::15         2871                       # Per bank write bursts
system.mem_ctrls.dram.perBankWrBursts::0         2406                       # Per bank write bursts
system.mem_ctrls.dram.perBankWrBursts::1         2281                       # Per bank write bursts
system.mem_ctrls.dram.perBankWrBursts::2         2356                       # Per bank write bursts
system.mem_ctrls.dram.perBankWrBursts::3         2362                       # Per bank write bursts
system.mem_ctrls.dram.perBankWrBursts::4         2383                       # Per bank write bursts
system.mem_ctrls.dram.perBankWrBursts::5         2224                       # Per bank write bursts
system.mem_ctrls.dram.perBankWrBursts::6         2361                       # Per bank write bursts
system.mem_ctrls.dram.perBankWrBursts::7         2484                       # Per bank write bursts
system.mem_ctrls.dram.perBankWrBursts::8         2306                       # Per bank write bursts
system.mem_ctrls.dram.perBankWrBursts::9         2329                       # Per bank write bursts
system.mem_ctrls.dram.perBankWrBursts::10         2434                       # Per bank write bursts
system.mem_ctrls.dram.perBankWrBursts::11         2325                       # Per bank write bursts
system.mem_ctrls.dram.perBankWrBursts::12         2331                       # Per bank write bursts
system.mem_ctrls.dram.perBankWrBursts::13         2403                       # Per bank write bursts
system.mem_ctrls.dram.perBankWrBursts::14         2305                       # Per bank write bursts
system.mem_ctrls.dram.perBankWrBursts::15         2331                       # Per bank write bursts
system.mem_ctrls.dram.totQLat               517180000                       # Total ticks spent queuing
system.mem_ctrls.dram.totBusLat             232260000                       # Total ticks spent in databus transfers
system.mem_ctrls.dram.totMemAccLat         1388155000                       # Total ticks spent from burst creation until serviced by the DRAM
system.mem_ctrls.dram.avgQLat                11133.64                       # Average queueing delay per DRAM burst
system.mem_ctrls.dram.avgBusLat               5000.00                       # Average bus latency per DRAM burst
system.mem_ctrls.dram.avgMemAccLat           29883.64                       # Average memory access latency per DRAM burst
system.mem_ctrls.dram.readRowHits               28141                       # Number of row buffer hits during reads
system.mem_ctrls.dram.writeRowHits              27302                       # Number of row buffer hits during writes
system.mem_ctrls.dram.readRowHitRate            60.58                       # Row buffer hit rate for reads
system.mem_ctrls.dram.writeRowHitRate           72.57                       # Row buffer hit rate for writes
system.mem_ctrls.dram.bytesPerActivate::samples        28629                       # Bytes accessed per row activation
system.mem_ctrls.dram.bytesPerActivate::mean   187.940340                       # Bytes accessed per row activation
system.mem_ctrls.dram.bytesPerActivate::gmean   126.055945                       # Bytes accessed per row activation
system.mem_ctrls.dram.bytesPerActivate::stdev   214.857663                       # Bytes accessed per row activation
system.mem_ctrls.dram.bytesPerActivate::0-127        14084     49.19%     49.19% # Bytes accessed per row activation
system.mem_ctrls.dram.bytesPerActivate::128-255         9325     32.57%     81.77% # Bytes accessed per row activation
system.mem_ctrls.dram.bytesPerActivate::256-383         1572      5.49%     87.26% # Bytes accessed per row activation
system.mem_ctrls.dram.bytesPerActivate::384-511          803      2.80%     90.06% # Bytes accessed per row activation
system.mem_ctrls.dram.bytesPerActivate::512-639          848      2.96%     93.02% # Bytes accessed per row activation
system.mem_ctrls.dram.bytesPerActivate::640-767          568      1.98%     95.01% # Bytes accessed per row activation
system.mem_ctrls.dram.bytesPerActivate::768-895          448      1.56%     96.57% # Bytes accessed per row activation
system.mem_ctrls.dram.bytesPerActivate::896-1023          388      1.36%     97.93% # Bytes accessed per row activation
system.mem_ctrls.dram.bytesPerActivate::1024-1151          593      2.07%    100.00% # Bytes accessed per row activation
system.mem_ctrls.dram.bytesPerActivate::total        28629                       # Bytes accessed per row activation
system.mem_ctrls.dram.bytesRead               2972928                       # Total number of bytes read from DRAM
system.mem_ctrls.dram.bytesWritten            2407744                       # Total number of bytes written to DRAM
system.mem_ctrls.dram.avgRdBW               48.107241                       # Average DRAM read bandwidth in MiBytes/s
system.mem_ctrls.dram.avgWrBW               38.961563                       # Average DRAM write bandwidth in MiBytes/s
system.mem_ctrls.dram.peakBW                 12800.00                       # Theoretical peak bandwidth in MiByte/s
system.mem_ctrls.dram.busUtil                    0.68                       # Data bus utilization in percentage
system.mem_ctrls.dram.busUtilRead                0.38                       # Data bus utilization in percentage for reads
system.mem_ctrls.dram.busUtilWrite               0.30                       # Data bus utilization in percentage for writes
system.mem_ctrls.dram.pageHitRate               65.95                       # Row buffer hit rate, read and write combined
system.mem_ctrls.dram.power_state.pwrStateResidencyTicks::UNDEFINED  61797931500                       # Cumulative time (in ticks) in various power states
system.mem_ctrls.dram.rank0.actEnergy       104365380                       # Energy for activate commands per rank (pJ)
system.mem_ctrls.dram.rank0.preEnergy        55467720                       # Energy for precharge commands per rank (pJ)
system.mem_ctrls.dram.rank0.readEnergy      165926460                       # Energy for read commands per rank (pJ)
system.mem_ctrls.dram.rank0.writeEnergy      98433540                       # Energy for write commands per rank (pJ)
system.mem_ctrls.dram.rank0.refreshEnergy 4877783040.000001                       # Energy for refresh commands per rank (pJ)
system.mem_ctrls.dram.rank0.actBackEnergy  15844009560                       # Energy for active background per rank (pJ)
system.mem_ctrls.dram.rank0.preBackEnergy  10388082240                       # Energy for precharge background per rank (pJ)
system.mem_ctrls.dram.rank0.actPowerDownEnergy            0                       # Energy for active power-down per rank (pJ)
system.mem_ctrls.dram.rank0.prePowerDownEnergy            0                       # Energy for precharge power-down per rank (pJ)
system.mem_ctrls.dram.rank0.selfRefreshEnergy            0                       # Energy for self refresh per rank (pJ)
system.mem_ctrls.dram.rank0.totalEnergy   31534067940                       # Total energy per rank (pJ)
system.mem_ctrls.dram.rank0.averagePower   510.277078                       # Core power per rank (mW)
system.mem_ctrls.dram.rank0.totalIdleTime            0                       # Total Idle time Per DRAM Rank
system.mem_ctrls.dram.rank0.pwrStateTime::IDLE  26854944250                       # Time in different power states
system.mem_ctrls.dram.rank0.pwrStateTime::REF   2063360000                       # Time in different power states
system.mem_ctrls.dram.rank0.pwrStateTime::SREF            0                       # Time in different power states
system.mem_ctrls.dram.rank0.pwrStateTime::PRE_PDN            0                       # Time in different power states
system.mem_ctrls.dram.rank0.pwrStateTime::ACT  32879627250                       # Time in different power states
system.mem_ctrls.dram.rank0.pwrStateTime::ACT_PDN            0                       # Time in different power states
system.mem_ctrls.dram.rank1.actEnergy       100052820                       # Energy for activate commands per rank (pJ)
system.mem_ctrls.dram.rank1.preEnergy        53179335                       # Energy for precharge commands per rank (pJ)
system.mem_ctrls.dram.rank1.readEnergy      165740820                       # Energy for read commands per rank (pJ)
system.mem_ctrls.dram.rank1.writeEnergy      97948080                       # Energy for write commands per rank (pJ)
system.mem_ctrls.dram.rank1.refreshEnergy 4877783040.000001                       # Energy for refresh commands per rank (pJ)
system.mem_ctrls.dram.rank1.actBackEnergy  16046585280                       # Energy for active background per rank (pJ)
system.mem_ctrls.dram.rank1.preBackEnergy  10217492160                       # Energy for precharge background per rank (pJ)
system.mem_ctrls.dram.rank1.actPowerDownEnergy            0                       # Energy for active power-down per rank (pJ)
system.mem_ctrls.dram.rank1.prePowerDownEnergy            0                       # Energy for precharge power-down per rank (pJ)
system.mem_ctrls.dram.rank1.selfRefreshEnergy            0                       # Energy for self refresh per rank (pJ)
system.mem_ctrls.dram.rank1.totalEnergy   31558781535                       # Total energy per rank (pJ)
system.mem_ctrls.dram.rank1.averagePower   510.676988                       # Core power per rank (mW)
system.mem_ctrls.dram.rank1.totalIdleTime            0                       # Total Idle time Per DRAM Rank
system.mem_ctrls.dram.rank1.pwrStateTime::IDLE  26407993000                       # Time in different power states
system.mem_ctrls.dram.rank1.pwrStateTime::REF   2063360000                       # Time in different power states
system.mem_ctrls.dram.rank1.pwrStateTime::SREF            0                       # Time in different power states
system.mem_ctrls.dram.rank1.pwrStateTime::PRE_PDN            0                       # Time in different power states
system.mem_ctrls.dram.rank1.pwrStateTime::ACT  33326578500                       # Time in different power states
system.mem_ctrls.dram.rank1.pwrStateTime::ACT_PDN            0                       # Time in different power states
system.mem_ctrls.power_state.pwrStateResidencyTicks::UNDEFINED  61797931500                       # Cumulative time (in ticks) in various power states
system.membus.trans_dist::ReadResp               7664                       # Transaction distribution
system.membus.trans_dist::WritebackDirty        37653                       # Transaction distribution
system.membus.trans_dist::CleanEvict              176                       # Transaction distribution
system.membus.trans_dist::ReadExReq             38810                       # Transaction distribution
system.membus.trans_dist::ReadExResp            38810                       # Transaction distribution
system.membus.trans_dist::ReadSharedReq          7664                       # Transaction distribution
system.membus.pkt_count_system.l2.mem_side_port::system.mem_ctrls.port       130777                       # Packet count per connected requestor and responder (bytes)
system.membus.pkt_count::total                 130777                       # Packet count per connected requestor and responder (bytes)
system.membus.pkt_size_system.l2.mem_side_port::system.mem_ctrls.port      5384128                       # Cumulative packet size per connected requestor and responder (bytes)
system.membus.pkt_size::total                 5384128                       # Cumulative packet size per connected requestor and responder (bytes)
system.membus.snoops                                0                       # Total snoops (count)
system.membus.snoopTraffic                          0                       # Total snoop traffic (bytes)
system.membus.snoop_fanout::samples             46474                       # Request fanout histogram
system.membus.snoop_fanout::mean                    0                       # Request fanout histogram
system.membus.snoop_fanout::stdev                   0                       # Request fanout histogram
system.membus.snoop_fanout::underflows              0      0.00%      0.00% # Request fanout histogram
system.membus.snoop_fanout::0                   46474    100.00%    100.00% # Request fanout histogram
system.membus.snoop_fanout::1                       0      0.00%    100.00% # Request fanout histogram
system.membus.snoop_fanout::overflows               0      0.00%    100.00% # Request fanout histogram
system.membus.snoop_fanout::min_value               0                       # Request fanout histogram
system.membus.snoop_fanout::max_value               0                       # Request fanout histogram
system.membus.snoop_fanout::total               46474                       # Request fanout histogram
system.membus.power_state.pwrStateResidencyTicks::UNDEFINED  61797931500                       # Cumulative time (in ticks) in various power states
system.membus.reqLayer0.occupancy           245318000                       # Layer occupancy (ticks)
system.membus.reqLayer0.utilization               0.4                       # Layer utilization (%)
system.membus.respLayer1.occupancy          248849500                       # Layer occupancy (ticks)
system.membus.respLayer1.utilization              0.4                       # Layer utilization (%)
system.tol2bus.trans_dist::ReadResp            373386                       # Transaction distribution
system.tol2bus.trans_dist::WritebackDirty       259883                       # Transaction distribution
system.tol2bus.trans_dist::WritebackClean          312                       # Transaction distribution
system.tol2bus.trans_dist::CleanEvict          224215                       # Transaction distribution
system.tol2bus.trans_dist::ReadExReq            73318                       # Transaction distribution
system.tol2bus.trans_dist::ReadExResp           73318                       # Transaction distribution
system.tol2bus.trans_dist::ReadCleanReq           770                       # Transaction distribution
system.tol2bus.trans_dist::ReadSharedReq       372616                       # Transaction distribution
system.tol2bus.pkt_count_system.cpu.icache.mem_side_port::system.l2.cpu_side_port         1852                       # Packet count per connected requestor and responder (bytes)
system.tol2bus.pkt_count_system.cpu.dcache.mem_side_port::system.l2.cpu_side_port      1337674                       # Packet count per connected requestor and responder (bytes)
system.tol2bus.pkt_count::total               1339526                       # Packet count per connected requestor and responder (bytes)
system.tol2bus.pkt_size_system.cpu.icache.mem_side_port::system.l2.cpu_side_port        69248                       # Cumulative packet size per connected requestor and responder (bytes)
system.tol2bus.pkt_size_system.cpu.dcache.mem_side_port::system.l2.cpu_side_port     42762496                       # Cumulative packet size per connected requestor and responder (bytes)
system.tol2bus.pkt_size::total               42831744                       # Cumulative packet size per connected requestor and responder (bytes)
system.tol2bus.snoops                           38292                       # Total snoops (count)
system.tol2bus.snoopTraffic                   2409792                       # Total snoop traffic (bytes)
system.tol2bus.snoop_fanout::samples           484996                       # Request fanout histogram
system.tol2bus.snoop_fanout::mean            0.102665                       # Request fanout histogram
system.tol2bus.snoop_fanout::stdev           0.303521                       # Request fanout histogram
system.tol2bus.snoop_fanout::underflows             0      0.00%      0.00% # Request fanout histogram
system.tol2bus.snoop_fanout::0                 435204     89.73%     89.73% # Request fanout histogram
system.tol2bus.snoop_fanout::1                  49792     10.27%    100.00% # Request fanout histogram
system.tol2bus.snoop_fanout::2                      0      0.00%    100.00% # Request fanout histogram
system.tol2bus.snoop_fanout::overflows              0      0.00%    100.00% # Request fanout histogram
system.tol2bus.snoop_fanout::min_value              0                       # Request fanout histogram
system.tol2bus.snoop_fanout::max_value              1                       # Request fanout histogram
system.tol2bus.snoop_fanout::total             484996                       # Request fanout histogram
system.tol2bus.power_state.pwrStateResidencyTicks::UNDEFINED  61797931500                       # Cumulative time (in ticks) in various power states
system.tol2bus.reqLayer0.occupancy          668953000                       # Layer occupancy (ticks)
system.tol2bus.reqLayer0.utilization              1.1                       # Layer utilization (%)
system.tol2bus.respLayer0.occupancy           1155499                       # Layer occupancy (ticks)
system.tol2bus.respLayer0.utilization             0.0                       # Layer utilization (%)
system.tol2bus.respLayer1.occupancy         668903495                       # Layer occupancy (ticks)
system.tol2bus.respLayer1.utilization             1.1                       # Layer utilization (%)
system.voltage_domain.voltage                       1                       # Voltage in Volts

---------- End Simulation Statistics   ----------
