
---------- Begin Simulation Statistics ----------
final_tick                               705639142000                       # Number of ticks from beginning of simulation (restored from checkpoints and never reset)
host_inst_rate                                  75551                       # Simulator instruction rate (inst/s)
host_mem_usage                                 656272                       # Number of bytes of host memory used
host_op_rate                                   139180                       # Simulator op (including micro ops) rate (op/s)
host_seconds                                  1323.60                       # Real time elapsed on the host
host_tick_rate                              533120486                       # Simulator tick rate (ticks/s)
sim_freq                                 1000000000000                       # Frequency of simulated ticks
sim_insts                                   100000001                       # Number of instructions simulated
sim_ops                                     184218784                       # Number of ops (including micro ops) simulated
sim_seconds                                  0.705639                       # Number of seconds simulated
sim_ticks                                705639142000                       # Number of ticks simulated
system.cpu.committedInsts                   100000001                       # Number of instructions committed
system.cpu.committedOps                     184218784                       # Number of ops (including micro ops) committed
system.cpu.cpi                               7.056391                       # CPI: cycles per instruction
system.cpu.discardedOps                          4403                       # Number of ops (including micro ops) which were discarded before commit
system.cpu.idleCycles                       483947420                       # Total number of cycles that the object has spent stopped
system.cpu.ipc                               0.141715                       # IPC: instructions per cycle
system.cpu.numCycles                        705639142                       # number of cpu cycles simulated
system.cpu.numFetchSuspends                         0                       # Number of times Execute suspended instruction fetching
system.cpu.numWorkItemsCompleted                    0                       # number of work items this cpu completed
system.cpu.numWorkItemsStarted                      0                       # number of work items this cpu started
system.cpu.op_class_0::No_OpClass                   0      0.00%      0.00% # Class of committed instruction
system.cpu.op_class_0::IntAlu                97640468     53.00%     53.00% # Class of committed instruction
system.cpu.op_class_0::IntMult                 114702      0.06%     53.06% # Class of committed instruction
system.cpu.op_class_0::IntDiv                       0      0.00%     53.06% # Class of committed instruction
system.cpu.op_class_0::FloatAdd                     0      0.00%     53.06% # Class of committed instruction
system.cpu.op_class_0::FloatCmp                     0      0.00%     53.06% # Class of committed instruction
system.cpu.op_class_0::FloatCvt                     0      0.00%     53.06% # Class of committed instruction
system.cpu.op_class_0::FloatMult                    0      0.00%     53.06% # Class of committed instruction
system.cpu.op_class_0::FloatMultAcc                 0      0.00%     53.06% # Class of committed instruction
system.cpu.op_class_0::FloatDiv                     0      0.00%     53.06% # Class of committed instruction
system.cpu.op_class_0::FloatMisc                    0      0.00%     53.06% # Class of committed instruction
system.cpu.op_class_0::FloatSqrt                    0      0.00%     53.06% # Class of committed instruction
system.cpu.op_class_0::SimdAdd                      8      0.00%     53.06% # Class of committed instruction
system.cpu.op_class_0::SimdAddAcc                   0      0.00%     53.06% # Class of committed instruction
system.cpu.op_class_0::SimdAlu                     10      0.00%     53.06% # Class of committed instruction
system.cpu.op_class_0::SimdCmp                      8      0.00%     53.06% # Class of committed instruction
system.cpu.op_class_0::SimdCvt                      0      0.00%     53.06% # Class of committed instruction
system.cpu.op_class_0::SimdMisc                     1      0.00%     53.06% # Class of committed instruction
system.cpu.op_class_0::SimdMult                     0      0.00%     53.06% # Class of committed instruction
system.cpu.op_class_0::SimdMultAcc                  0      0.00%     53.06% # Class of committed instruction
system.cpu.op_class_0::SimdShift                    0      0.00%     53.06% # Class of committed instruction
system.cpu.op_class_0::SimdShiftAcc                 0      0.00%     53.06% # Class of committed instruction
system.cpu.op_class_0::SimdDiv                      0      0.00%     53.06% # Class of committed instruction
system.cpu.op_class_0::SimdSqrt                     0      0.00%     53.06% # Class of committed instruction
system.cpu.op_class_0::SimdFloatAdd                 0      0.00%     53.06% # Class of committed instruction
system.cpu.op_class_0::SimdFloatAlu                 0      0.00%     53.06% # Class of committed instruction
system.cpu.op_class_0::SimdFloatCmp                 0      0.00%     53.06% # Class of committed instruction
system.cpu.op_class_0::SimdFloatCvt                 0      0.00%     53.06% # Class of committed instruction
system.cpu.op_class_0::SimdFloatDiv                 0      0.00%     53.06% # Class of committed instruction
system.cpu.op_class_0::SimdFloatMisc               24      0.00%     53.06% # Class of committed instruction
system.cpu.op_class_0::SimdFloatMult                0      0.00%     53.06% # Class of committed instruction
system.cpu.op_class_0::SimdFloatMultAcc             0      0.00%     53.06% # Class of committed instruction
system.cpu.op_class_0::SimdFloatSqrt                0      0.00%     53.06% # Class of committed instruction
system.cpu.op_class_0::SimdReduceAdd                0      0.00%     53.06% # Class of committed instruction
system.cpu.op_class_0::SimdReduceAlu                0      0.00%     53.06% # Class of committed instruction
system.cpu.op_class_0::SimdReduceCmp                0      0.00%     53.06% # Class of committed instruction
system.cpu.op_class_0::SimdFloatReduceAdd            0      0.00%     53.06% # Class of committed instruction
system.cpu.op_class_0::SimdFloatReduceCmp            0      0.00%     53.06% # Class of committed instruction
system.cpu.op_class_0::SimdAes                      0      0.00%     53.06% # Class of committed instruction
system.cpu.op_class_0::SimdAesMix                   0      0.00%     53.06% # Class of committed instruction
system.cpu.op_class_0::SimdSha1Hash                 0      0.00%     53.06% # Class of committed instruction
system.cpu.op_class_0::SimdSha1Hash2                0      0.00%     53.06% # Class of committed instruction
system.cpu.op_class_0::SimdSha256Hash               0      0.00%     53.06% # Class of committed instruction
system.cpu.op_class_0::SimdSha256Hash2              0      0.00%     53.06% # Class of committed instruction
system.cpu.op_class_0::SimdShaSigma2                0      0.00%     53.06% # Class of committed instruction
system.cpu.op_class_0::SimdShaSigma3                0      0.00%     53.06% # Class of committed instruction
system.cpu.op_class_0::SimdPredAlu                  0      0.00%     53.06% # Class of committed instruction
system.cpu.op_class_0::MemRead                2082677      1.13%     54.20% # Class of committed instruction
system.cpu.op_class_0::MemWrite              84380886     45.80%    100.00% # Class of committed instruction
system.cpu.op_class_0::FloatMemRead                 0      0.00%    100.00% # Class of committed instruction
system.cpu.op_class_0::FloatMemWrite                0      0.00%    100.00% # Class of committed instruction
system.cpu.op_class_0::IprAccess                    0      0.00%    100.00% # Class of committed instruction
system.cpu.op_class_0::InstPrefetch                 0      0.00%    100.00% # Class of committed instruction
system.cpu.op_class_0::total                184218784                       # Class of committed instruction
system.cpu.tickCycles                       221691722                       # Number of cycles that the object actually ticked
system.cpu.workload.numSyscalls                    19                       # Number of system calls
system.membus.snoop_filter.hit_multi_requests            0                       # Number of requests hitting in the snoop filter with multiple (>1) holders of the requested data.
system.membus.snoop_filter.hit_multi_snoops            0                       # Number of snoops hitting in the snoop filter with multiple (>1) holders of the requested data.
system.membus.snoop_filter.hit_single_requests      5255334                       # Number of requests hitting in the snoop filter with a single holder of the requested data.
system.membus.snoop_filter.hit_single_snoops            0                       # Number of snoops hitting in the snoop filter with a single holder of the requested data.
system.membus.snoop_filter.tot_requests      10519219                       # Total number of requests made to the snoop filter.
system.membus.snoop_filter.tot_snoops               0                       # Total number of snoops made to the snoop filter.
system.tol2bus.snoop_filter.hit_multi_requests          623                       # Number of requests hitting in the snoop filter with multiple (>1) holders of the requested data.
system.tol2bus.snoop_filter.hit_multi_snoops            0                       # Number of snoops hitting in the snoop filter with multiple (>1) holders of the requested data.
system.tol2bus.snoop_filter.hit_single_requests      5269720                       # Number of requests hitting in the snoop filter with a single holder of the requested data.
system.tol2bus.snoop_filter.hit_single_snoops          485                       # Number of snoops hitting in the snoop filter with a single holder of the requested data.
system.tol2bus.snoop_filter.tot_requests     10540322                       # Total number of requests made to the snoop filter.
system.tol2bus.snoop_filter.tot_snoops            485                       # Total number of snoops made to the snoop filter.
system.clk_domain.clock                          1000                       # Clock period in ticks
system.cpu.branchPred.lookups                10658209                       # Number of BP lookups
system.cpu.branchPred.condPredicted          10649987                       # Number of conditional branches predicted
system.cpu.branchPred.condIncorrect              1451                       # Number of conditional branches incorrect
system.cpu.branchPred.BTBLookups             10650195                       # Number of BTB lookups
system.cpu.branchPred.BTBHits                10648844                       # Number of BTB hits
system.cpu.branchPred.BTBHitPct             99.987315                       # BTB Hit Percentage
system.cpu.branchPred.RASUsed                    2709                       # Number of times the RAS was used to get a target.
system.cpu.branchPred.RASIncorrect                  1                       # Number of incorrect RAS predictions.
system.cpu.branchPred.indirectLookups             192                       # Number of indirect predictor lookups.
system.cpu.branchPred.indirectHits                 19                       # Number of indirect target hits.
system.cpu.branchPred.indirectMisses              173                       # Number of indirect misses.
system.cpu.branchPred.indirectMispredicted          105                       # Number of mispredicted indirect branches.
system.cpu.dcache.demand_hits::.cpu.data     75850165                       # number of demand (read+write) hits
system.cpu.dcache.demand_hits::total         75850165                       # number of demand (read+write) hits
system.cpu.dcache.overall_hits::.cpu.data     75850201                       # number of overall hits
system.cpu.dcache.overall_hits::total        75850201                       # number of overall hits
system.cpu.dcache.demand_misses::.cpu.data     10530436                       # number of demand (read+write) misses
system.cpu.dcache.demand_misses::total       10530436                       # number of demand (read+write) misses
system.cpu.dcache.overall_misses::.cpu.data     10530471                       # number of overall misses
system.cpu.dcache.overall_misses::total      10530471                       # number of overall misses
system.cpu.dcache.demand_miss_latency::.cpu.data 1109539170999                       # number of demand (read+write) miss cycles
system.cpu.dcache.demand_miss_latency::total 1109539170999                       # number of demand (read+write) miss cycles
system.cpu.dcache.overall_miss_latency::.cpu.data 1109539170999                       # number of overall miss cycles
system.cpu.dcache.overall_miss_latency::total 1109539170999                       # number of overall miss cycles
system.cpu.dcache.demand_accesses::.cpu.data     86380601                       # number of demand (read+write) accesses
system.cpu.dcache.demand_accesses::total     86380601                       # number of demand (read+write) accesses
system.cpu.dcache.overall_accesses::.cpu.data     86380672                       # number of overall (read+write) accesses
system.cpu.dcache.overall_accesses::total     86380672                       # number of overall (read+write) accesses
system.cpu.dcache.demand_miss_rate::.cpu.data     0.121907                       # miss rate for demand accesses
system.cpu.dcache.demand_miss_rate::total     0.121907                       # miss rate for demand accesses
system.cpu.dcache.overall_miss_rate::.cpu.data     0.121908                       # miss rate for overall accesses
system.cpu.dcache.overall_miss_rate::total     0.121908                       # miss rate for overall accesses
system.cpu.dcache.demand_avg_miss_latency::.cpu.data 105364.979285                       # average overall miss latency
system.cpu.dcache.demand_avg_miss_latency::total 105364.979285                       # average overall miss latency
system.cpu.dcache.overall_avg_miss_latency::.cpu.data 105364.629084                       # average overall miss latency
system.cpu.dcache.overall_avg_miss_latency::total 105364.629084                       # average overall miss latency
system.cpu.dcache.blocked_cycles::no_mshrs          126                       # number of cycles access was blocked
system.cpu.dcache.blocked_cycles::no_targets            0                       # number of cycles access was blocked
system.cpu.dcache.blocked::no_mshrs                 2                       # number of cycles access was blocked
system.cpu.dcache.blocked::no_targets               0                       # number of cycles access was blocked
system.cpu.dcache.avg_blocked_cycles::no_mshrs           63                       # average number of cycles each access was blocked
system.cpu.dcache.avg_blocked_cycles::no_targets          nan                       # average number of cycles each access was blocked
system.cpu.dcache.writebacks::.writebacks      5266268                       # number of writebacks
system.cpu.dcache.writebacks::total           5266268                       # number of writebacks
system.cpu.dcache.demand_mshr_hits::.cpu.data      5260545                       # number of demand (read+write) MSHR hits
system.cpu.dcache.demand_mshr_hits::total      5260545                       # number of demand (read+write) MSHR hits
system.cpu.dcache.overall_mshr_hits::.cpu.data      5260545                       # number of overall MSHR hits
system.cpu.dcache.overall_mshr_hits::total      5260545                       # number of overall MSHR hits
system.cpu.dcache.demand_mshr_misses::.cpu.data      5269891                       # number of demand (read+write) MSHR misses
system.cpu.dcache.demand_mshr_misses::total      5269891                       # number of demand (read+write) MSHR misses
system.cpu.dcache.overall_mshr_misses::.cpu.data      5269923                       # number of overall MSHR misses
system.cpu.dcache.overall_mshr_misses::total      5269923                       # number of overall MSHR misses
system.cpu.dcache.demand_mshr_miss_latency::.cpu.data 541852735000                       # number of demand (read+write) MSHR miss cycles
system.cpu.dcache.demand_mshr_miss_latency::total 541852735000                       # number of demand (read+write) MSHR miss cycles
system.cpu.dcache.overall_mshr_miss_latency::.cpu.data 541855825000                       # number of overall MSHR miss cycles
system.cpu.dcache.overall_mshr_miss_latency::total 541855825000                       # number of overall MSHR miss cycles
system.cpu.dcache.demand_mshr_miss_rate::.cpu.data     0.061008                       # mshr miss rate for demand accesses
system.cpu.dcache.demand_mshr_miss_rate::total     0.061008                       # mshr miss rate for demand accesses
system.cpu.dcache.overall_mshr_miss_rate::.cpu.data     0.061008                       # mshr miss rate for overall accesses
system.cpu.dcache.overall_mshr_miss_rate::total     0.061008                       # mshr miss rate for overall accesses
system.cpu.dcache.demand_avg_mshr_miss_latency::.cpu.data 102820.482435                       # average overall mshr miss latency
system.cpu.dcache.demand_avg_mshr_miss_latency::total 102820.482435                       # average overall mshr miss latency
system.cpu.dcache.overall_avg_mshr_miss_latency::.cpu.data 102820.444435                       # average overall mshr miss latency
system.cpu.dcache.overall_avg_mshr_miss_latency::total 102820.444435                       # average overall mshr miss latency
system.cpu.dcache.replacements                5269411                       # number of replacements
system.cpu.dcache.ReadReq_hits::.cpu.data      2040315                       # number of ReadReq hits
system.cpu.dcache.ReadReq_hits::total         2040315                       # number of ReadReq hits
system.cpu.dcache.ReadReq_misses::.cpu.data         3694                       # number of ReadReq misses
system.cpu.dcache.ReadReq_misses::total          3694                       # number of ReadReq misses
system.cpu.dcache.ReadReq_miss_latency::.cpu.data    128102000                       # number of ReadReq miss cycles
system.cpu.dcache.ReadReq_miss_latency::total    128102000                       # number of ReadReq miss cycles
system.cpu.dcache.ReadReq_accesses::.cpu.data      2044009                       # number of ReadReq accesses(hits+misses)
system.cpu.dcache.ReadReq_accesses::total      2044009                       # number of ReadReq accesses(hits+misses)
system.cpu.dcache.ReadReq_miss_rate::.cpu.data     0.001807                       # miss rate for ReadReq accesses
system.cpu.dcache.ReadReq_miss_rate::total     0.001807                       # miss rate for ReadReq accesses
system.cpu.dcache.ReadReq_avg_miss_latency::.cpu.data 34678.397401                       # average ReadReq miss latency
system.cpu.dcache.ReadReq_avg_miss_latency::total 34678.397401                       # average ReadReq miss latency
system.cpu.dcache.ReadReq_mshr_hits::.cpu.data           38                       # number of ReadReq MSHR hits
system.cpu.dcache.ReadReq_mshr_hits::total           38                       # number of ReadReq MSHR hits
system.cpu.dcache.ReadReq_mshr_misses::.cpu.data         3656                       # number of ReadReq MSHR misses
system.cpu.dcache.ReadReq_mshr_misses::total         3656                       # number of ReadReq MSHR misses
system.cpu.dcache.ReadReq_mshr_miss_latency::.cpu.data    117818000                       # number of ReadReq MSHR miss cycles
system.cpu.dcache.ReadReq_mshr_miss_latency::total    117818000                       # number of ReadReq MSHR miss cycles
system.cpu.dcache.ReadReq_mshr_miss_rate::.cpu.data     0.001789                       # mshr miss rate for ReadReq accesses
system.cpu.dcache.ReadReq_mshr_miss_rate::total     0.001789                       # mshr miss rate for ReadReq accesses
system.cpu.dcache.ReadReq_avg_mshr_miss_latency::.cpu.data 32225.929978                       # average ReadReq mshr miss latency
system.cpu.dcache.ReadReq_avg_mshr_miss_latency::total 32225.929978                       # average ReadReq mshr miss latency
system.cpu.dcache.WriteReq_hits::.cpu.data     73809850                       # number of WriteReq hits
system.cpu.dcache.WriteReq_hits::total       73809850                       # number of WriteReq hits
system.cpu.dcache.WriteReq_misses::.cpu.data     10526742                       # number of WriteReq misses
system.cpu.dcache.WriteReq_misses::total     10526742                       # number of WriteReq misses
system.cpu.dcache.WriteReq_miss_latency::.cpu.data 1109411068999                       # number of WriteReq miss cycles
system.cpu.dcache.WriteReq_miss_latency::total 1109411068999                       # number of WriteReq miss cycles
system.cpu.dcache.WriteReq_accesses::.cpu.data     84336592                       # number of WriteReq accesses(hits+misses)
system.cpu.dcache.WriteReq_accesses::total     84336592                       # number of WriteReq accesses(hits+misses)
system.cpu.dcache.WriteReq_miss_rate::.cpu.data     0.124818                       # miss rate for WriteReq accesses
system.cpu.dcache.WriteReq_miss_rate::total     0.124818                       # miss rate for WriteReq accesses
system.cpu.dcache.WriteReq_avg_miss_latency::.cpu.data 105389.784323                       # average WriteReq miss latency
system.cpu.dcache.WriteReq_avg_miss_latency::total 105389.784323                       # average WriteReq miss latency
system.cpu.dcache.WriteReq_mshr_hits::.cpu.data      5260507                       # number of WriteReq MSHR hits
system.cpu.dcache.WriteReq_mshr_hits::total      5260507                       # number of WriteReq MSHR hits
system.cpu.dcache.WriteReq_mshr_misses::.cpu.data      5266235                       # number of WriteReq MSHR misses
system.cpu.dcache.WriteReq_mshr_misses::total      5266235                       # number of WriteReq MSHR misses
system.cpu.dcache.WriteReq_mshr_miss_latency::.cpu.data 541734917000                       # number of WriteReq MSHR miss cycles
system.cpu.dcache.WriteReq_mshr_miss_latency::total 541734917000                       # number of WriteReq MSHR miss cycles
system.cpu.dcache.WriteReq_mshr_miss_rate::.cpu.data     0.062443                       # mshr miss rate for WriteReq accesses
system.cpu.dcache.WriteReq_mshr_miss_rate::total     0.062443                       # mshr miss rate for WriteReq accesses
system.cpu.dcache.WriteReq_avg_mshr_miss_latency::.cpu.data 102869.491582                       # average WriteReq mshr miss latency
system.cpu.dcache.WriteReq_avg_mshr_miss_latency::total 102869.491582                       # average WriteReq mshr miss latency
system.cpu.dcache.SoftPFReq_hits::.cpu.data           36                       # number of SoftPFReq hits
system.cpu.dcache.SoftPFReq_hits::total            36                       # number of SoftPFReq hits
system.cpu.dcache.SoftPFReq_misses::.cpu.data           35                       # number of SoftPFReq misses
system.cpu.dcache.SoftPFReq_misses::total           35                       # number of SoftPFReq misses
system.cpu.dcache.SoftPFReq_accesses::.cpu.data           71                       # number of SoftPFReq accesses(hits+misses)
system.cpu.dcache.SoftPFReq_accesses::total           71                       # number of SoftPFReq accesses(hits+misses)
system.cpu.dcache.SoftPFReq_miss_rate::.cpu.data     0.492958                       # miss rate for SoftPFReq accesses
system.cpu.dcache.SoftPFReq_miss_rate::total     0.492958                       # miss rate for SoftPFReq accesses
system.cpu.dcache.SoftPFReq_mshr_misses::.cpu.data           32                       # number of SoftPFReq MSHR misses
system.cpu.dcache.SoftPFReq_mshr_misses::total           32                       # number of SoftPFReq MSHR misses
system.cpu.dcache.SoftPFReq_mshr_miss_latency::.cpu.data      3090000                       # number of SoftPFReq MSHR miss cycles
system.cpu.dcache.SoftPFReq_mshr_miss_latency::total      3090000                       # number of SoftPFReq MSHR miss cycles
system.cpu.dcache.SoftPFReq_mshr_miss_rate::.cpu.data     0.450704                       # mshr miss rate for SoftPFReq accesses
system.cpu.dcache.SoftPFReq_mshr_miss_rate::total     0.450704                       # mshr miss rate for SoftPFReq accesses
system.cpu.dcache.SoftPFReq_avg_mshr_miss_latency::.cpu.data 96562.500000                       # average SoftPFReq mshr miss latency
system.cpu.dcache.SoftPFReq_avg_mshr_miss_latency::total 96562.500000                       # average SoftPFReq mshr miss latency
system.cpu.dcache.LoadLockedReq_hits::.cpu.data           34                       # number of LoadLockedReq hits
system.cpu.dcache.LoadLockedReq_hits::total           34                       # number of LoadLockedReq hits
system.cpu.dcache.LoadLockedReq_accesses::.cpu.data           34                       # number of LoadLockedReq accesses(hits+misses)
system.cpu.dcache.LoadLockedReq_accesses::total           34                       # number of LoadLockedReq accesses(hits+misses)
system.cpu.dcache.StoreCondReq_hits::.cpu.data           34                       # number of StoreCondReq hits
system.cpu.dcache.StoreCondReq_hits::total           34                       # number of StoreCondReq hits
system.cpu.dcache.StoreCondReq_accesses::.cpu.data           34                       # number of StoreCondReq accesses(hits+misses)
system.cpu.dcache.StoreCondReq_accesses::total           34                       # number of StoreCondReq accesses(hits+misses)
system.cpu.dcache.power_state.pwrStateResidencyTicks::UNDEFINED 705639142000                       # Cumulative time (in ticks) in various power states
system.cpu.dcache.tags.tagsinuse           511.876419                       # Cycle average of tags in use
system.cpu.dcache.tags.total_refs            81120192                       # Total number of references to valid blocks.
system.cpu.dcache.tags.sampled_refs           5269923                       # Sample count of references to valid blocks.
system.cpu.dcache.tags.avg_refs             15.393051                       # Average number of references to valid blocks.
system.cpu.dcache.tags.warmup_cycle            223000                       # Cycle when the warmup percentage was hit.
system.cpu.dcache.tags.occ_blocks::.cpu.data   511.876419                       # Average occupied blocks per requestor
system.cpu.dcache.tags.occ_percent::.cpu.data     0.999759                       # Average percentage of cache occupancy
system.cpu.dcache.tags.occ_percent::total     0.999759                       # Average percentage of cache occupancy
system.cpu.dcache.tags.occ_task_id_blocks::1024          512                       # Occupied blocks per task id
system.cpu.dcache.tags.age_task_id_blocks_1024::0           76                       # Occupied blocks per task id
system.cpu.dcache.tags.age_task_id_blocks_1024::1          436                       # Occupied blocks per task id
system.cpu.dcache.tags.occ_task_id_percent::1024            1                       # Percentage of cache occupancy per task id
system.cpu.dcache.tags.tag_accesses          91650663                       # Number of tag accesses
system.cpu.dcache.tags.data_accesses         91650663                       # Number of data accesses
system.cpu.dcache.tags.power_state.pwrStateResidencyTicks::UNDEFINED 705639142000                       # Cumulative time (in ticks) in various power states
system.cpu.dtb.instHits                             0                       # ITB inst hits
system.cpu.dtb.instMisses                           0                       # ITB inst misses
system.cpu.dtb.readHits                             0                       # DTB read hits
system.cpu.dtb.readMisses                           0                       # DTB read misses
system.cpu.dtb.writeHits                            0                       # DTB write hits
system.cpu.dtb.writeMisses                          0                       # DTB write misses
system.cpu.dtb.inserts                              0                       # Number of times an entry is inserted into the TLB
system.cpu.dtb.flushTlb                             0                       # Number of times complete TLB was flushed
system.cpu.dtb.flushTlbMva                          0                       # Number of times TLB was flushed by MVA
system.cpu.dtb.flushTlbMvaAsid                      0                       # Number of times TLB was flushed by MVA & ASID
system.cpu.dtb.flushTlbAsid                         0                       # Number of times TLB was flushed by ASID
system.cpu.dtb.flushedEntries                       0                       # Number of entries that have been flushed from TLB
system.cpu.dtb.alignFaults                          0                       # Number of TLB faults due to alignment restrictions
system.cpu.dtb.prefetchFaults                       0                       # Number of TLB faults due to prefetch
system.cpu.dtb.domainFaults                         0                       # Number of TLB faults due to domain restrictions
system.cpu.dtb.permsFaults                          0                       # Number of TLB faults due to permissions restrictions
system.cpu.dtb.readAccesses                         0                       # DTB read accesses
system.cpu.dtb.writeAccesses                        0                       # DTB write accesses
system.cpu.dtb.instAccesses                         0                       # ITB inst accesses
system.cpu.dtb.hits                                 0                       # Total TLB (inst and data) hits
system.cpu.dtb.misses                               0                       # Total TLB (inst and data) misses
system.cpu.dtb.accesses                             0                       # Total TLB (inst and data) accesses
system.cpu.dtb.stage2_mmu.stage2_tlb.instHits            0                       # ITB inst hits
system.cpu.dtb.stage2_mmu.stage2_tlb.instMisses            0                       # ITB inst misses
system.cpu.dtb.stage2_mmu.stage2_tlb.readHits            0                       # DTB read hits
system.cpu.dtb.stage2_mmu.stage2_tlb.readMisses            0                       # DTB read misses
system.cpu.dtb.stage2_mmu.stage2_tlb.writeHits            0                       # DTB write hits
system.cpu.dtb.stage2_mmu.stage2_tlb.writeMisses            0                       # DTB write misses
system.cpu.dtb.stage2_mmu.stage2_tlb.inserts            0                       # Number of times an entry is inserted into the TLB
system.cpu.dtb.stage2_mmu.stage2_tlb.flushTlb            0                       # Number of times complete TLB was flushed
system.cpu.dtb.stage2_mmu.stage2_tlb.flushTlbMva            0                       # Number of times TLB was flushed by MVA
system.cpu.dtb.stage2_mmu.stage2_tlb.flushTlbMvaAsid            0                       # Number of times TLB was flushed by MVA & ASID
system.cpu.dtb.stage2_mmu.stage2_tlb.flushTlbAsid            0                       # Number of times TLB was flushed by ASID
system.cpu.dtb.stage2_mmu.stage2_tlb.flushedEntries            0                       # Number of entries that have been flushed from TLB
system.cpu.dtb.stage2_mmu.stage2_tlb.alignFaults            0                       # Number of TLB faults due to alignment restrictions
system.cpu.dtb.stage2_mmu.stage2_tlb.prefetchFaults            0                       # Number of TLB faults due to prefetch
system.cpu.dtb.stage2_mmu.stage2_tlb.domainFaults            0                       # Number of TLB faults due to domain restrictions
system.cpu.dtb.stage2_mmu.stage2_tlb.permsFaults            0                       # Number of TLB faults due to permissions restrictions
system.cpu.dtb.stage2_mmu.stage2_tlb.readAccesses            0                       # DTB read accesses
system.cpu.dtb.stage2_mmu.stage2_tlb.writeAccesses            0                       # DTB write accesses
system.cpu.dtb.stage2_mmu.stage2_tlb.instAccesses            0                       # ITB inst accesses
system.cpu.dtb.stage2_mmu.stage2_tlb.hits            0                       # Total TLB (inst and data) hits
system.cpu.dtb.stage2_mmu.stage2_tlb.misses            0                       # Total TLB (inst and data) misses
system.cpu.dtb.stage2_mmu.stage2_tlb.accesses            0                       # Total TLB (inst and data) accesses
system.cpu.dtb.stage2_mmu.stage2_tlb.walker.walks            0                       # Table walker walks requested
system.cpu.dtb.stage2_mmu.stage2_tlb.walker.requestOrigin_Requested::Data            0                       # Table walker requests started/completed, data/inst
system.cpu.dtb.stage2_mmu.stage2_tlb.walker.requestOrigin_Requested::Inst            0                       # Table walker requests started/completed, data/inst
system.cpu.dtb.stage2_mmu.stage2_tlb.walker.requestOrigin_Requested::total            0                       # Table walker requests started/completed, data/inst
system.cpu.dtb.stage2_mmu.stage2_tlb.walker.requestOrigin_Completed::Data            0                       # Table walker requests started/completed, data/inst
system.cpu.dtb.stage2_mmu.stage2_tlb.walker.requestOrigin_Completed::Inst            0                       # Table walker requests started/completed, data/inst
system.cpu.dtb.stage2_mmu.stage2_tlb.walker.requestOrigin_Completed::total            0                       # Table walker requests started/completed, data/inst
system.cpu.dtb.stage2_mmu.stage2_tlb.walker.requestOrigin::total            0                       # Table walker requests started/completed, data/inst
system.cpu.dtb.stage2_mmu.stage2_tlb.walker.power_state.pwrStateResidencyTicks::UNDEFINED 705639142000                       # Cumulative time (in ticks) in various power states
system.cpu.dtb.walker.walks                         0                       # Table walker walks requested
system.cpu.dtb.walker.requestOrigin_Requested::Data            0                       # Table walker requests started/completed, data/inst
system.cpu.dtb.walker.requestOrigin_Requested::Inst            0                       # Table walker requests started/completed, data/inst
system.cpu.dtb.walker.requestOrigin_Requested::total            0                       # Table walker requests started/completed, data/inst
system.cpu.dtb.walker.requestOrigin_Completed::Data            0                       # Table walker requests started/completed, data/inst
system.cpu.dtb.walker.requestOrigin_Completed::Inst            0                       # Table walker requests started/completed, data/inst
system.cpu.dtb.walker.requestOrigin_Completed::total            0                       # Table walker requests started/completed, data/inst
system.cpu.dtb.walker.requestOrigin::total            0                       # Table walker requests started/completed, data/inst
system.cpu.dtb.walker.power_state.pwrStateResidencyTicks::UNDEFINED 705639142000                       # Cumulative time (in ticks) in various power states
system.cpu.fetch2.intInstructions            45070924                       # Number of integer instructions successfully decoded
system.cpu.fetch2.fpInstructions                    0                       # Number of floating point instructions successfully decoded
system.cpu.fetch2.vecInstructions                   0                       # Number of SIMD instructions successfully decoded
system.cpu.fetch2.loadInstructions            2086381                       # Number of memory load instructions successfully decoded
system.cpu.fetch2.storeInstructions            169100                       # Number of memory store instructions successfully decoded
system.cpu.fetch2.amoInstructions                   0                       # Number of memory atomic instructions successfully decoded
system.cpu.icache.demand_hits::.cpu.inst     32144728                       # number of demand (read+write) hits
system.cpu.icache.demand_hits::total         32144728                       # number of demand (read+write) hits
system.cpu.icache.overall_hits::.cpu.inst     32144728                       # number of overall hits
system.cpu.icache.overall_hits::total        32144728                       # number of overall hits
system.cpu.icache.demand_misses::.cpu.inst          679                       # number of demand (read+write) misses
system.cpu.icache.demand_misses::total            679                       # number of demand (read+write) misses
system.cpu.icache.overall_misses::.cpu.inst          679                       # number of overall misses
system.cpu.icache.overall_misses::total           679                       # number of overall misses
system.cpu.icache.demand_miss_latency::.cpu.inst     64985000                       # number of demand (read+write) miss cycles
system.cpu.icache.demand_miss_latency::total     64985000                       # number of demand (read+write) miss cycles
system.cpu.icache.overall_miss_latency::.cpu.inst     64985000                       # number of overall miss cycles
system.cpu.icache.overall_miss_latency::total     64985000                       # number of overall miss cycles
system.cpu.icache.demand_accesses::.cpu.inst     32145407                       # number of demand (read+write) accesses
system.cpu.icache.demand_accesses::total     32145407                       # number of demand (read+write) accesses
system.cpu.icache.overall_accesses::.cpu.inst     32145407                       # number of overall (read+write) accesses
system.cpu.icache.overall_accesses::total     32145407                       # number of overall (read+write) accesses
system.cpu.icache.demand_miss_rate::.cpu.inst     0.000021                       # miss rate for demand accesses
system.cpu.icache.demand_miss_rate::total     0.000021                       # miss rate for demand accesses
system.cpu.icache.overall_miss_rate::.cpu.inst     0.000021                       # miss rate for overall accesses
system.cpu.icache.overall_miss_rate::total     0.000021                       # miss rate for overall accesses
system.cpu.icache.demand_avg_miss_latency::.cpu.inst 95706.921944                       # average overall miss latency
system.cpu.icache.demand_avg_miss_latency::total 95706.921944                       # average overall miss latency
system.cpu.icache.overall_avg_miss_latency::.cpu.inst 95706.921944                       # average overall miss latency
system.cpu.icache.overall_avg_miss_latency::total 95706.921944                       # average overall miss latency
system.cpu.icache.blocked_cycles::no_mshrs            0                       # number of cycles access was blocked
system.cpu.icache.blocked_cycles::no_targets            0                       # number of cycles access was blocked
system.cpu.icache.blocked::no_mshrs                 0                       # number of cycles access was blocked
system.cpu.icache.blocked::no_targets               0                       # number of cycles access was blocked
system.cpu.icache.avg_blocked_cycles::no_mshrs          nan                       # average number of cycles each access was blocked
system.cpu.icache.avg_blocked_cycles::no_targets          nan                       # average number of cycles each access was blocked
system.cpu.icache.writebacks::.writebacks          309                       # number of writebacks
system.cpu.icache.writebacks::total               309                       # number of writebacks
system.cpu.icache.demand_mshr_misses::.cpu.inst          679                       # number of demand (read+write) MSHR misses
system.cpu.icache.demand_mshr_misses::total          679                       # number of demand (read+write) MSHR misses
system.cpu.icache.overall_mshr_misses::.cpu.inst          679                       # number of overall MSHR misses
system.cpu.icache.overall_mshr_misses::total          679                       # number of overall MSHR misses
system.cpu.icache.demand_mshr_miss_latency::.cpu.inst     63627000                       # number of demand (read+write) MSHR miss cycles
system.cpu.icache.demand_mshr_miss_latency::total     63627000                       # number of demand (read+write) MSHR miss cycles
system.cpu.icache.overall_mshr_miss_latency::.cpu.inst     63627000                       # number of overall MSHR miss cycles
system.cpu.icache.overall_mshr_miss_latency::total     63627000                       # number of overall MSHR miss cycles
system.cpu.icache.demand_mshr_miss_rate::.cpu.inst     0.000021                       # mshr miss rate for demand accesses
system.cpu.icache.demand_mshr_miss_rate::total     0.000021                       # mshr miss rate for demand accesses
system.cpu.icache.overall_mshr_miss_rate::.cpu.inst     0.000021                       # mshr miss rate for overall accesses
system.cpu.icache.overall_mshr_miss_rate::total     0.000021                       # mshr miss rate for overall accesses
system.cpu.icache.demand_avg_mshr_miss_latency::.cpu.inst 93706.921944                       # average overall mshr miss latency
system.cpu.icache.demand_avg_mshr_miss_latency::total 93706.921944                       # average overall mshr miss latency
system.cpu.icache.overall_avg_mshr_miss_latency::.cpu.inst 93706.921944                       # average overall mshr miss latency
system.cpu.icache.overall_avg_mshr_miss_latency::total 93706.921944                       # average overall mshr miss latency
system.cpu.icache.replacements                    309                       # number of replacements
system.cpu.icache.ReadReq_hits::.cpu.inst     32144728                       # number of ReadReq hits
system.cpu.icache.ReadReq_hits::total        32144728                       # number of ReadReq hits
system.cpu.icache.ReadReq_misses::.cpu.inst          679                       # number of ReadReq misses
system.cpu.icache.ReadReq_misses::total           679                       # number of ReadReq misses
system.cpu.icache.ReadReq_miss_latency::.cpu.inst     64985000                       # number of ReadReq miss cycles
system.cpu.icache.ReadReq_miss_latency::total     64985000                       # number of ReadReq miss cycles
system.cpu.icache.ReadReq_accesses::.cpu.inst     32145407                       # number of ReadReq accesses(hits+misses)
system.cpu.icache.ReadReq_accesses::total     32145407                       # number of ReadReq accesses(hits+misses)
system.cpu.icache.ReadReq_miss_rate::.cpu.inst     0.000021                       # miss rate for ReadReq accesses
system.cpu.icache.ReadReq_miss_rate::total     0.000021                       # miss rate for ReadReq accesses
system.cpu.icache.ReadReq_avg_miss_latency::.cpu.inst 95706.921944                       # average ReadReq miss latency
system.cpu.icache.ReadReq_avg_miss_latency::total 95706.921944                       # average ReadReq miss latency
system.cpu.icache.ReadReq_mshr_misses::.cpu.inst          679                       # number of ReadReq MSHR misses
system.cpu.icache.ReadReq_mshr_misses::total          679                       # number of ReadReq MSHR misses
system.cpu.icache.ReadReq_mshr_miss_latency::.cpu.inst     63627000                       # number of ReadReq MSHR miss cycles
system.cpu.icache.ReadReq_mshr_miss_latency::total     63627000                       # number of ReadReq MSHR miss cycles
system.cpu.icache.ReadReq_mshr_miss_rate::.cpu.inst     0.000021                       # mshr miss rate for ReadReq accesses
system.cpu.icache.ReadReq_mshr_miss_rate::total     0.000021                       # mshr miss rate for ReadReq accesses
system.cpu.icache.ReadReq_avg_mshr_miss_latency::.cpu.inst 93706.921944                       # average ReadReq mshr miss latency
system.cpu.icache.ReadReq_avg_mshr_miss_latency::total 93706.921944                       # average ReadReq mshr miss latency
system.cpu.icache.power_state.pwrStateResidencyTicks::UNDEFINED 705639142000                       # Cumulative time (in ticks) in various power states
system.cpu.icache.tags.tagsinuse           323.921211                       # Cycle average of tags in use
system.cpu.icache.tags.total_refs            32145407                       # Total number of references to valid blocks.
system.cpu.icache.tags.sampled_refs               679                       # Sample count of references to valid blocks.
system.cpu.icache.tags.avg_refs          47342.278351                       # Average number of references to valid blocks.
system.cpu.icache.tags.warmup_cycle            108000                       # Cycle when the warmup percentage was hit.
system.cpu.icache.tags.occ_blocks::.cpu.inst   323.921211                       # Average occupied blocks per requestor
system.cpu.icache.tags.occ_percent::.cpu.inst     0.632659                       # Average percentage of cache occupancy
system.cpu.icache.tags.occ_percent::total     0.632659                       # Average percentage of cache occupancy
system.cpu.icache.tags.occ_task_id_blocks::1024          370                       # Occupied blocks per task id
system.cpu.icache.tags.age_task_id_blocks_1024::4          370                       # Occupied blocks per task id
system.cpu.icache.tags.occ_task_id_percent::1024     0.722656                       # Percentage of cache occupancy per task id
system.cpu.icache.tags.tag_accesses          32146086                       # Number of tag accesses
system.cpu.icache.tags.data_accesses         32146086                       # Number of data accesses
system.cpu.icache.tags.power_state.pwrStateResidencyTicks::UNDEFINED 705639142000                       # Cumulative time (in ticks) in various power states
system.cpu.itb.instHits                             0                       # ITB inst hits
system.cpu.itb.instMisses                           0                       # ITB inst misses
system.cpu.itb.readHits                             0                       # DTB read hits
system.cpu.itb.readMisses                           0                       # DTB read misses
system.cpu.itb.writeHits                            0                       # DTB write hits
system.cpu.itb.writeMisses                          0                       # DTB write misses
system.cpu.itb.inserts                              0                       # Number of times an entry is inserted into the TLB
system.cpu.itb.flushTlb                             0                       # Number of times complete TLB was flushed
system.cpu.itb.flushTlbMva                          0                       # Number of times TLB was flushed by MVA
system.cpu.itb.flushTlbMvaAsid                      0                       # Number of times TLB was flushed by MVA & ASID
system.cpu.itb.flushTlbAsid                         0                       # Number of times TLB was flushed by ASID
system.cpu.itb.flushedEntries                       0                       # Number of entries that have been flushed from TLB
system.cpu.itb.alignFaults                          0                       # Number of TLB faults due to alignment restrictions
system.cpu.itb.prefetchFaults                       0                       # Number of TLB faults due to prefetch
system.cpu.itb.domainFaults                         0                       # Number of TLB faults due to domain restrictions
system.cpu.itb.permsFaults                          0                       # Number of TLB faults due to permissions restrictions
system.cpu.itb.readAccesses                         0                       # DTB read accesses
system.cpu.itb.writeAccesses                        0                       # DTB write accesses
system.cpu.itb.instAccesses                         0                       # ITB inst accesses
system.cpu.itb.hits                                 0                       # Total TLB (inst and data) hits
system.cpu.itb.misses                               0                       # Total TLB (inst and data) misses
system.cpu.itb.accesses                             0                       # Total TLB (inst and data) accesses
system.cpu.itb.stage2_mmu.stage2_tlb.instHits            0                       # ITB inst hits
system.cpu.itb.stage2_mmu.stage2_tlb.instMisses            0                       # ITB inst misses
system.cpu.itb.stage2_mmu.stage2_tlb.readHits            0                       # DTB read hits
system.cpu.itb.stage2_mmu.stage2_tlb.readMisses            0                       # DTB read misses
system.cpu.itb.stage2_mmu.stage2_tlb.writeHits            0                       # DTB write hits
system.cpu.itb.stage2_mmu.stage2_tlb.writeMisses            0                       # DTB write misses
system.cpu.itb.stage2_mmu.stage2_tlb.inserts            0                       # Number of times an entry is inserted into the TLB
system.cpu.itb.stage2_mmu.stage2_tlb.flushTlb            0                       # Number of times complete TLB was flushed
system.cpu.itb.stage2_mmu.stage2_tlb.flushTlbMva            0                       # Number of times TLB was flushed by MVA
system.cpu.itb.stage2_mmu.stage2_tlb.flushTlbMvaAsid            0                       # Number of times TLB was flushed by MVA & ASID
system.cpu.itb.stage2_mmu.stage2_tlb.flushTlbAsid            0                       # Number of times TLB was flushed by ASID
system.cpu.itb.stage2_mmu.stage2_tlb.flushedEntries            0                       # Number of entries that have been flushed from TLB
system.cpu.itb.stage2_mmu.stage2_tlb.alignFaults            0                       # Number of TLB faults due to alignment restrictions
system.cpu.itb.stage2_mmu.stage2_tlb.prefetchFaults            0                       # Number of TLB faults due to prefetch
system.cpu.itb.stage2_mmu.stage2_tlb.domainFaults            0                       # Number of TLB faults due to domain restrictions
system.cpu.itb.stage2_mmu.stage2_tlb.permsFaults            0                       # Number of TLB faults due to permissions restrictions
system.cpu.itb.stage2_mmu.stage2_tlb.readAccesses            0                       # DTB read accesses
system.cpu.itb.stage2_mmu.stage2_tlb.writeAccesses            0                       # DTB write accesses
system.cpu.itb.stage2_mmu.stage2_tlb.instAccesses            0                       # ITB inst accesses
system.cpu.itb.stage2_mmu.stage2_tlb.hits            0                       # Total TLB (inst and data) hits
system.cpu.itb.stage2_mmu.stage2_tlb.misses            0                       # Total TLB (inst and data) misses
system.cpu.itb.stage2_mmu.stage2_tlb.accesses            0                       # Total TLB (inst and data) accesses
system.cpu.itb.stage2_mmu.stage2_tlb.walker.walks            0                       # Table walker walks requested
system.cpu.itb.stage2_mmu.stage2_tlb.walker.requestOrigin_Requested::Data            0                       # Table walker requests started/completed, data/inst
system.cpu.itb.stage2_mmu.stage2_tlb.walker.requestOrigin_Requested::Inst            0                       # Table walker requests started/completed, data/inst
system.cpu.itb.stage2_mmu.stage2_tlb.walker.requestOrigin_Requested::total            0                       # Table walker requests started/completed, data/inst
system.cpu.itb.stage2_mmu.stage2_tlb.walker.requestOrigin_Completed::Data            0                       # Table walker requests started/completed, data/inst
system.cpu.itb.stage2_mmu.stage2_tlb.walker.requestOrigin_Completed::Inst            0                       # Table walker requests started/completed, data/inst
system.cpu.itb.stage2_mmu.stage2_tlb.walker.requestOrigin_Completed::total            0                       # Table walker requests started/completed, data/inst
system.cpu.itb.stage2_mmu.stage2_tlb.walker.requestOrigin::total            0                       # Table walker requests started/completed, data/inst
system.cpu.itb.stage2_mmu.stage2_tlb.walker.power_state.pwrStateResidencyTicks::UNDEFINED 705639142000                       # Cumulative time (in ticks) in various power states
system.cpu.itb.walker.walks                         0                       # Table walker walks requested
system.cpu.itb.walker.requestOrigin_Requested::Data            0                       # Table walker requests started/completed, data/inst
system.cpu.itb.walker.requestOrigin_Requested::Inst            0                       # Table walker requests started/completed, data/inst
system.cpu.itb.walker.requestOrigin_Requested::total            0                       # Table walker requests started/completed, data/inst
system.cpu.itb.walker.requestOrigin_Completed::Data            0                       # Table walker requests started/completed, data/inst
system.cpu.itb.walker.requestOrigin_Completed::Inst            0                       # Table walker requests started/completed, data/inst
system.cpu.itb.walker.requestOrigin_Completed::total            0                       # Table walker requests started/completed, data/inst
system.cpu.itb.walker.requestOrigin::total            0                       # Table walker requests started/completed, data/inst
system.cpu.itb.walker.power_state.pwrStateResidencyTicks::UNDEFINED 705639142000                       # Cumulative time (in ticks) in various power states
system.cpu.power_state.pwrStateResidencyTicks::ON 705639142000                       # Cumulative time (in ticks) in various power states
system.cpu.thread_0.numInsts                100000001                       # Number of Instructions committed
system.cpu.thread_0.numOps                  184218784                       # Number of Ops committed
system.cpu.thread_0.numMemRefs                      0                       # Number of Memory References
system.cpu_clk_domain.clock                      1000                       # Clock period in ticks
system.cpu_voltage_domain.voltage                   1                       # Voltage in Volts
system.l2.demand_hits::.cpu.inst                   86                       # number of demand (read+write) hits
system.l2.demand_hits::.cpu.data                 6614                       # number of demand (read+write) hits
system.l2.demand_hits::total                     6700                       # number of demand (read+write) hits
system.l2.overall_hits::.cpu.inst                  86                       # number of overall hits
system.l2.overall_hits::.cpu.data                6614                       # number of overall hits
system.l2.overall_hits::total                    6700                       # number of overall hits
system.l2.demand_misses::.cpu.inst                593                       # number of demand (read+write) misses
system.l2.demand_misses::.cpu.data            5263309                       # number of demand (read+write) misses
system.l2.demand_misses::total                5263902                       # number of demand (read+write) misses
system.l2.overall_misses::.cpu.inst               593                       # number of overall misses
system.l2.overall_misses::.cpu.data           5263309                       # number of overall misses
system.l2.overall_misses::total               5263902                       # number of overall misses
system.l2.demand_miss_latency::.cpu.inst     59734000                       # number of demand (read+write) miss cycles
system.l2.demand_miss_latency::.cpu.data 525887153000                       # number of demand (read+write) miss cycles
system.l2.demand_miss_latency::total     525946887000                       # number of demand (read+write) miss cycles
system.l2.overall_miss_latency::.cpu.inst     59734000                       # number of overall miss cycles
system.l2.overall_miss_latency::.cpu.data 525887153000                       # number of overall miss cycles
system.l2.overall_miss_latency::total    525946887000                       # number of overall miss cycles
system.l2.demand_accesses::.cpu.inst              679                       # number of demand (read+write) accesses
system.l2.demand_accesses::.cpu.data          5269923                       # number of demand (read+write) accesses
system.l2.demand_accesses::total              5270602                       # number of demand (read+write) accesses
system.l2.overall_accesses::.cpu.inst             679                       # number of overall (read+write) accesses
system.l2.overall_accesses::.cpu.data         5269923                       # number of overall (read+write) accesses
system.l2.overall_accesses::total             5270602                       # number of overall (read+write) accesses
system.l2.demand_miss_rate::.cpu.inst        0.873343                       # miss rate for demand accesses
system.l2.demand_miss_rate::.cpu.data        0.998745                       # miss rate for demand accesses
system.l2.demand_miss_rate::total            0.998729                       # miss rate for demand accesses
system.l2.overall_miss_rate::.cpu.inst       0.873343                       # miss rate for overall accesses
system.l2.overall_miss_rate::.cpu.data       0.998745                       # miss rate for overall accesses
system.l2.overall_miss_rate::total           0.998729                       # miss rate for overall accesses
system.l2.demand_avg_miss_latency::.cpu.inst 100731.871838                       # average overall miss latency
system.l2.demand_avg_miss_latency::.cpu.data 99915.690491                       # average overall miss latency
system.l2.demand_avg_miss_latency::total 99915.782437                       # average overall miss latency
system.l2.overall_avg_miss_latency::.cpu.inst 100731.871838                       # average overall miss latency
system.l2.overall_avg_miss_latency::.cpu.data 99915.690491                       # average overall miss latency
system.l2.overall_avg_miss_latency::total 99915.782437                       # average overall miss latency
system.l2.blocked_cycles::no_mshrs                  0                       # number of cycles access was blocked
system.l2.blocked_cycles::no_targets                0                       # number of cycles access was blocked
system.l2.blocked::no_mshrs                         0                       # number of cycles access was blocked
system.l2.blocked::no_targets                       0                       # number of cycles access was blocked
system.l2.avg_blocked_cycles::no_mshrs            nan                       # average number of cycles each access was blocked
system.l2.avg_blocked_cycles::no_targets          nan                       # average number of cycles each access was blocked
system.l2.writebacks::.writebacks             5254859                       # number of writebacks
system.l2.writebacks::total                   5254859                       # number of writebacks
system.l2.demand_mshr_hits::.cpu.data               6                       # number of demand (read+write) MSHR hits
system.l2.demand_mshr_hits::total                   6                       # number of demand (read+write) MSHR hits
system.l2.overall_mshr_hits::.cpu.data              6                       # number of overall MSHR hits
system.l2.overall_mshr_hits::total                  6                       # number of overall MSHR hits
system.l2.demand_mshr_misses::.cpu.inst           593                       # number of demand (read+write) MSHR misses
system.l2.demand_mshr_misses::.cpu.data       5263303                       # number of demand (read+write) MSHR misses
system.l2.demand_mshr_misses::total           5263896                       # number of demand (read+write) MSHR misses
system.l2.overall_mshr_misses::.cpu.inst          593                       # number of overall MSHR misses
system.l2.overall_mshr_misses::.cpu.data      5263303                       # number of overall MSHR misses
system.l2.overall_mshr_misses::total          5263896                       # number of overall MSHR misses
system.l2.demand_mshr_miss_latency::.cpu.inst     47874000                       # number of demand (read+write) MSHR miss cycles
system.l2.demand_mshr_miss_latency::.cpu.data 420620590000                       # number of demand (read+write) MSHR miss cycles
system.l2.demand_mshr_miss_latency::total 420668464000                       # number of demand (read+write) MSHR miss cycles
system.l2.overall_mshr_miss_latency::.cpu.inst     47874000                       # number of overall MSHR miss cycles
system.l2.overall_mshr_miss_latency::.cpu.data 420620590000                       # number of overall MSHR miss cycles
system.l2.overall_mshr_miss_latency::total 420668464000                       # number of overall MSHR miss cycles
system.l2.demand_mshr_miss_rate::.cpu.inst     0.873343                       # mshr miss rate for demand accesses
system.l2.demand_mshr_miss_rate::.cpu.data     0.998744                       # mshr miss rate for demand accesses
system.l2.demand_mshr_miss_rate::total       0.998728                       # mshr miss rate for demand accesses
system.l2.overall_mshr_miss_rate::.cpu.inst     0.873343                       # mshr miss rate for overall accesses
system.l2.overall_mshr_miss_rate::.cpu.data     0.998744                       # mshr miss rate for overall accesses
system.l2.overall_mshr_miss_rate::total      0.998728                       # mshr miss rate for overall accesses
system.l2.demand_avg_mshr_miss_latency::.cpu.inst 80731.871838                       # average overall mshr miss latency
system.l2.demand_avg_mshr_miss_latency::.cpu.data 79915.708824                       # average overall mshr miss latency
system.l2.demand_avg_mshr_miss_latency::total 79915.800768                       # average overall mshr miss latency
system.l2.overall_avg_mshr_miss_latency::.cpu.inst 80731.871838                       # average overall mshr miss latency
system.l2.overall_avg_mshr_miss_latency::.cpu.data 79915.708824                       # average overall mshr miss latency
system.l2.overall_avg_mshr_miss_latency::total 79915.800768                       # average overall mshr miss latency
system.l2.replacements                        5255797                       # number of replacements
system.l2.WritebackDirty_hits::.writebacks      5266268                       # number of WritebackDirty hits
system.l2.WritebackDirty_hits::total          5266268                       # number of WritebackDirty hits
system.l2.WritebackDirty_accesses::.writebacks      5266268                       # number of WritebackDirty accesses(hits+misses)
system.l2.WritebackDirty_accesses::total      5266268                       # number of WritebackDirty accesses(hits+misses)
system.l2.WritebackClean_hits::.writebacks          301                       # number of WritebackClean hits
system.l2.WritebackClean_hits::total              301                       # number of WritebackClean hits
system.l2.WritebackClean_accesses::.writebacks          301                       # number of WritebackClean accesses(hits+misses)
system.l2.WritebackClean_accesses::total          301                       # number of WritebackClean accesses(hits+misses)
system.l2.CleanEvict_mshr_misses::.writebacks           11                       # number of CleanEvict MSHR misses
system.l2.CleanEvict_mshr_misses::total            11                       # number of CleanEvict MSHR misses
system.l2.CleanEvict_mshr_miss_rate::.writebacks          inf                       # mshr miss rate for CleanEvict accesses
system.l2.CleanEvict_mshr_miss_rate::total          inf                       # mshr miss rate for CleanEvict accesses
system.l2.ReadExReq_hits::.cpu.data              3213                       # number of ReadExReq hits
system.l2.ReadExReq_hits::total                  3213                       # number of ReadExReq hits
system.l2.ReadExReq_misses::.cpu.data         5263022                       # number of ReadExReq misses
system.l2.ReadExReq_misses::total             5263022                       # number of ReadExReq misses
system.l2.ReadExReq_miss_latency::.cpu.data 525857732000                       # number of ReadExReq miss cycles
system.l2.ReadExReq_miss_latency::total  525857732000                       # number of ReadExReq miss cycles
system.l2.ReadExReq_accesses::.cpu.data       5266235                       # number of ReadExReq accesses(hits+misses)
system.l2.ReadExReq_accesses::total           5266235                       # number of ReadExReq accesses(hits+misses)
system.l2.ReadExReq_miss_rate::.cpu.data     0.999390                       # miss rate for ReadExReq accesses
system.l2.ReadExReq_miss_rate::total         0.999390                       # miss rate for ReadExReq accesses
system.l2.ReadExReq_avg_miss_latency::.cpu.data 99915.548899                       # average ReadExReq miss latency
system.l2.ReadExReq_avg_miss_latency::total 99915.548899                       # average ReadExReq miss latency
system.l2.ReadExReq_mshr_misses::.cpu.data      5263022                       # number of ReadExReq MSHR misses
system.l2.ReadExReq_mshr_misses::total        5263022                       # number of ReadExReq MSHR misses
system.l2.ReadExReq_mshr_miss_latency::.cpu.data 420597292000                       # number of ReadExReq MSHR miss cycles
system.l2.ReadExReq_mshr_miss_latency::total 420597292000                       # number of ReadExReq MSHR miss cycles
system.l2.ReadExReq_mshr_miss_rate::.cpu.data     0.999390                       # mshr miss rate for ReadExReq accesses
system.l2.ReadExReq_mshr_miss_rate::total     0.999390                       # mshr miss rate for ReadExReq accesses
system.l2.ReadExReq_avg_mshr_miss_latency::.cpu.data 79915.548899                       # average ReadExReq mshr miss latency
system.l2.ReadExReq_avg_mshr_miss_latency::total 79915.548899                       # average ReadExReq mshr miss latency
system.l2.ReadCleanReq_hits::.cpu.inst             86                       # number of ReadCleanReq hits
system.l2.ReadCleanReq_hits::total                 86                       # number of ReadCleanReq hits
system.l2.ReadCleanReq_misses::.cpu.inst          593                       # number of ReadCleanReq misses
system.l2.ReadCleanReq_misses::total              593                       # number of ReadCleanReq misses
system.l2.ReadCleanReq_miss_latency::.cpu.inst     59734000                       # number of ReadCleanReq miss cycles
system.l2.ReadCleanReq_miss_latency::total     59734000                       # number of ReadCleanReq miss cycles
system.l2.ReadCleanReq_accesses::.cpu.inst          679                       # number of ReadCleanReq accesses(hits+misses)
system.l2.ReadCleanReq_accesses::total            679                       # number of ReadCleanReq accesses(hits+misses)
system.l2.ReadCleanReq_miss_rate::.cpu.inst     0.873343                       # miss rate for ReadCleanReq accesses
system.l2.ReadCleanReq_miss_rate::total      0.873343                       # miss rate for ReadCleanReq accesses
system.l2.ReadCleanReq_avg_miss_latency::.cpu.inst 100731.871838                       # average ReadCleanReq miss latency
system.l2.ReadCleanReq_avg_miss_latency::total 100731.871838                       # average ReadCleanReq miss latency
system.l2.ReadCleanReq_mshr_misses::.cpu.inst          593                       # number of ReadCleanReq MSHR misses
system.l2.ReadCleanReq_mshr_misses::total          593                       # number of ReadCleanReq MSHR misses
system.l2.ReadCleanReq_mshr_miss_latency::.cpu.inst     47874000                       # number of ReadCleanReq MSHR miss cycles
system.l2.ReadCleanReq_mshr_miss_latency::total     47874000                       # number of ReadCleanReq MSHR miss cycles
system.l2.ReadCleanReq_mshr_miss_rate::.cpu.inst     0.873343                       # mshr miss rate for ReadCleanReq accesses
system.l2.ReadCleanReq_mshr_miss_rate::total     0.873343                       # mshr miss rate for ReadCleanReq accesses
system.l2.ReadCleanReq_avg_mshr_miss_latency::.cpu.inst 80731.871838                       # average ReadCleanReq mshr miss latency
system.l2.ReadCleanReq_avg_mshr_miss_latency::total 80731.871838                       # average ReadCleanReq mshr miss latency
system.l2.ReadSharedReq_hits::.cpu.data          3401                       # number of ReadSharedReq hits
system.l2.ReadSharedReq_hits::total              3401                       # number of ReadSharedReq hits
system.l2.ReadSharedReq_misses::.cpu.data          287                       # number of ReadSharedReq misses
system.l2.ReadSharedReq_misses::total             287                       # number of ReadSharedReq misses
system.l2.ReadSharedReq_miss_latency::.cpu.data     29421000                       # number of ReadSharedReq miss cycles
system.l2.ReadSharedReq_miss_latency::total     29421000                       # number of ReadSharedReq miss cycles
system.l2.ReadSharedReq_accesses::.cpu.data         3688                       # number of ReadSharedReq accesses(hits+misses)
system.l2.ReadSharedReq_accesses::total          3688                       # number of ReadSharedReq accesses(hits+misses)
system.l2.ReadSharedReq_miss_rate::.cpu.data     0.077820                       # miss rate for ReadSharedReq accesses
system.l2.ReadSharedReq_miss_rate::total     0.077820                       # miss rate for ReadSharedReq accesses
system.l2.ReadSharedReq_avg_miss_latency::.cpu.data 102512.195122                       # average ReadSharedReq miss latency
system.l2.ReadSharedReq_avg_miss_latency::total 102512.195122                       # average ReadSharedReq miss latency
system.l2.ReadSharedReq_mshr_hits::.cpu.data            6                       # number of ReadSharedReq MSHR hits
system.l2.ReadSharedReq_mshr_hits::total            6                       # number of ReadSharedReq MSHR hits
system.l2.ReadSharedReq_mshr_misses::.cpu.data          281                       # number of ReadSharedReq MSHR misses
system.l2.ReadSharedReq_mshr_misses::total          281                       # number of ReadSharedReq MSHR misses
system.l2.ReadSharedReq_mshr_miss_latency::.cpu.data     23298000                       # number of ReadSharedReq MSHR miss cycles
system.l2.ReadSharedReq_mshr_miss_latency::total     23298000                       # number of ReadSharedReq MSHR miss cycles
system.l2.ReadSharedReq_mshr_miss_rate::.cpu.data     0.076193                       # mshr miss rate for ReadSharedReq accesses
system.l2.ReadSharedReq_mshr_miss_rate::total     0.076193                       # mshr miss rate for ReadSharedReq accesses
system.l2.ReadSharedReq_avg_mshr_miss_latency::.cpu.data 82911.032028                       # average ReadSharedReq mshr miss latency
system.l2.ReadSharedReq_avg_mshr_miss_latency::total 82911.032028                       # average ReadSharedReq mshr miss latency
system.l2.power_state.pwrStateResidencyTicks::UNDEFINED 705639142000                       # Cumulative time (in ticks) in various power states
system.l2.tags.tagsinuse                  8138.043751                       # Cycle average of tags in use
system.l2.tags.total_refs                    10539682                       # Total number of references to valid blocks.
system.l2.tags.sampled_refs                   5263989                       # Sample count of references to valid blocks.
system.l2.tags.avg_refs                      2.002223                       # Average number of references to valid blocks.
system.l2.tags.warmup_cycle                     87000                       # Cycle when the warmup percentage was hit.
system.l2.tags.occ_blocks::.writebacks       0.107813                       # Average occupied blocks per requestor
system.l2.tags.occ_blocks::.cpu.inst         3.524791                       # Average occupied blocks per requestor
system.l2.tags.occ_blocks::.cpu.data      8134.411147                       # Average occupied blocks per requestor
system.l2.tags.occ_percent::.writebacks      0.000013                       # Average percentage of cache occupancy
system.l2.tags.occ_percent::.cpu.inst        0.000430                       # Average percentage of cache occupancy
system.l2.tags.occ_percent::.cpu.data        0.992970                       # Average percentage of cache occupancy
system.l2.tags.occ_percent::total            0.993414                       # Average percentage of cache occupancy
system.l2.tags.occ_task_id_blocks::1024          8192                       # Occupied blocks per task id
system.l2.tags.age_task_id_blocks_1024::0           76                       # Occupied blocks per task id
system.l2.tags.age_task_id_blocks_1024::1          678                       # Occupied blocks per task id
system.l2.tags.age_task_id_blocks_1024::2         6781                       # Occupied blocks per task id
system.l2.tags.age_task_id_blocks_1024::3          657                       # Occupied blocks per task id
system.l2.tags.occ_task_id_percent::1024            1                       # Percentage of cache occupancy per task id
system.l2.tags.tag_accesses                  26343387                       # Number of tag accesses
system.l2.tags.data_accesses                 26343387                       # Number of data accesses
system.l2.tags.power_state.pwrStateResidencyTicks::UNDEFINED 705639142000                       # Cumulative time (in ticks) in various power states
system.mem_ctrls.avgPriority_.writebacks::samples   5254859.00                       # Average QoS priority value for accepted requests
system.mem_ctrls.avgPriority_.cpu.inst::samples       593.00                       # Average QoS priority value for accepted requests
system.mem_ctrls.avgPriority_.cpu.data::samples   5263303.00                       # Average QoS priority value for accepted requests
system.mem_ctrls.priorityMinLatency      0.000000018750                       # per QoS priority minimum request to response latency (s)
system.mem_ctrls.priorityMaxLatency      0.000866312500                       # per QoS priority maximum request to response latency (s)
system.mem_ctrls.numReadWriteTurnArounds       327947                       # Number of turnarounds from READ to WRITE
system.mem_ctrls.numWriteReadTurnArounds       327947                       # Number of turnarounds from WRITE to READ
system.mem_ctrls.numStayReadState            15633422                       # Number of times bus staying in READ state
system.mem_ctrls.numStayWriteState            4926923                       # Number of times bus staying in WRITE state
system.mem_ctrls.readReqs                     5263896                       # Number of read requests accepted
system.mem_ctrls.writeReqs                    5254859                       # Number of write requests accepted
system.mem_ctrls.readBursts                   5263896                       # Number of controller read bursts, including those serviced by the write queue
system.mem_ctrls.writeBursts                  5254859                       # Number of controller write bursts, including those merged in the write queue
system.mem_ctrls.servicedByWrQ                      0                       # Number of controller read bursts serviced by the write queue
system.mem_ctrls.mergedWrBursts                     0                       # Number of controller write bursts merged with an existing one
system.mem_ctrls.neitherReadNorWriteReqs            0                       # Number of requests that are neither read nor write
system.mem_ctrls.avgRdQLen                       1.00                       # Average read queue length when enqueuing
system.mem_ctrls.avgWrQLen                      25.56                       # Average write queue length when enqueuing
system.mem_ctrls.numRdRetry                         0                       # Number of times read queue was full causing retry
system.mem_ctrls.numWrRetry                         0                       # Number of times write queue was full causing retry
system.mem_ctrls.readPktSize::0                     0                       # Read request sizes (log2)
system.mem_ctrls.readPktSize::1                     0                       # Read request sizes (log2)
system.mem_ctrls.readPktSize::2                     0                       # Read request sizes (log2)
system.mem_ctrls.readPktSize::3                     0                       # Read request sizes (log2)
system.mem_ctrls.readPktSize::4                     0                       # Read request sizes (log2)
system.mem_ctrls.readPktSize::5                     0                       # Read request sizes (log2)
system.mem_ctrls.readPktSize::6               5263896                       # Read request sizes (log2)
system.mem_ctrls.writePktSize::0                    0                       # Write request sizes (log2)
system.mem_ctrls.writePktSize::1                    0                       # Write request sizes (log2)
system.mem_ctrls.writePktSize::2                    0                       # Write request sizes (log2)
system.mem_ctrls.writePktSize::3                    0                       # Write request sizes (log2)
system.mem_ctrls.writePktSize::4                    0                       # Write request sizes (log2)
system.mem_ctrls.writePktSize::5                    0                       # Write request sizes (log2)
system.mem_ctrls.writePktSize::6              5254859                       # Write request sizes (log2)
system.mem_ctrls.rdQLenPdf::0                 5263650                       # What read queue length does an incoming req see
system.mem_ctrls.rdQLenPdf::1                     226                       # What read queue length does an incoming req see
system.mem_ctrls.rdQLenPdf::2                      19                       # What read queue length does an incoming req see
system.mem_ctrls.rdQLenPdf::3                       1                       # What read queue length does an incoming req see
system.mem_ctrls.rdQLenPdf::4                       0                       # What read queue length does an incoming req see
system.mem_ctrls.rdQLenPdf::5                       0                       # What read queue length does an incoming req see
system.mem_ctrls.rdQLenPdf::6                       0                       # What read queue length does an incoming req see
system.mem_ctrls.rdQLenPdf::7                       0                       # What read queue length does an incoming req see
system.mem_ctrls.rdQLenPdf::8                       0                       # What read queue length does an incoming req see
system.mem_ctrls.rdQLenPdf::9                       0                       # What read queue length does an incoming req see
system.mem_ctrls.rdQLenPdf::10                      0                       # What read queue length does an incoming req see
[...]
system.mem_ctrls.dram.bw_write::.writebacks    476604763                       # Write bandwidth from this memory (bytes/s)
system.mem_ctrls.dram.bw_write::total       476604763                       # Write bandwidth from this memory (bytes/s)
system.mem_ctrls.dram.bw_total::.writebacks    476604763                       # Total bandwidth to/from this memory (bytes/s)
system.mem_ctrls.dram.bw_total::.cpu.inst        53784                       # Total bandwidth to/from this memory (bytes/s)
system.mem_ctrls.dram.bw_total::.cpu.data    477370616                       # Total bandwidth to/from this memory (bytes/s)
system.mem_ctrls.dram.bw_total::total       954029163                       # Total bandwidth to/from this memory (bytes/s)
system.mem_ctrls.dram.readBursts              5263896                       # Number of DRAM read bursts
system.mem_ctrls.dram.writeBursts             5254834                       # Number of DRAM write bursts
system.mem_ctrls.dram.perBankRdBursts::0       328923                       # Per bank write bursts
system.mem_ctrls.dram.perBankRdBursts::1       329090                       # Per bank write bursts
system.mem_ctrls.dram.perBankRdBursts::2       329059                       # Per bank write bursts
system.mem_ctrls.dram.perBankRdBursts::3       329078                       # Per bank write bursts
system.mem_ctrls.dram.perBankRdBursts::4       328991                       # Per bank write bursts
system.mem_ctrls.dram.perBankRdBursts::5       329077                       # Per bank write bursts
system.mem_ctrls.dram.perBankRdBursts::6       329081                       # Per bank write bursts
system.mem_ctrls.dram.perBankRdBursts::7       329025                       # Per bank write bursts
system.mem_ctrls.dram.perBankRdBursts::8       328903                       # Per bank write bursts
system.mem_ctrls.dram.perBankRdBursts::9       328864                       # Per bank write bursts
system.mem_ctrls.dram.perBankRdBursts::10       328902                       # Per bank write bursts
system.mem_ctrls.dram.perBankRdBursts::11       328924                       # Per bank write bursts
system.mem_ctrls.dram.perBankRdBursts::12       329021                       # Per bank write bursts
system.mem_ctrls.dram.perBankRdBursts::13       329022                       # Per bank write bursts
system.mem_ctrls.dram.perBankRdBursts::14       328993                       # Per bank write bursts
system.mem_ctrls.dram.perBankRdBursts::15       328943                       # Per bank write bursts
system.mem_ctrls.dram.perBankWrBursts::0       328325                       # Per bank write bursts
system.mem_ctrls.dram.perBankWrBursts::1       328477                       # Per bank write bursts
system.mem_ctrls.dram.perBankWrBursts::2       328467                       # Per bank write bursts
system.mem_ctrls.dram.perBankWrBursts::3       328542                       # Per bank write bursts
system.mem_ctrls.dram.perBankWrBursts::4       328462                       # Per bank write bursts
system.mem_ctrls.dram.perBankWrBursts::5       328521                       # Per bank write bursts
system.mem_ctrls.dram.perBankWrBursts::6       328522                       # Per bank write bursts
system.mem_ctrls.dram.perBankWrBursts::7       328494                       # Per bank write bursts
system.mem_ctrls.dram.perBankWrBursts::8       328321                       # Per bank write bursts
system.mem_ctrls.dram.perBankWrBursts::9       328320                       # Per bank write bursts
system.mem_ctrls.dram.perBankWrBursts::10       328320                       # Per bank write bursts
system.mem_ctrls.dram.perBankWrBursts::11       328375                       # Per bank write bursts
system.mem_ctrls.dram.perBankWrBursts::12       328449                       # Per bank write bursts
system.mem_ctrls.dram.perBankWrBursts::13       328441                       # Per bank write bursts
system.mem_ctrls.dram.perBankWrBursts::14       328397                       # Per bank write bursts
system.mem_ctrls.dram.perBankWrBursts::15       328401                       # Per bank write bursts
system.mem_ctrls.dram.totQLat             52133968500                       # Total ticks spent queuing
system.mem_ctrls.dram.totBusLat           26319480000                       # Total ticks spent in databus transfers
system.mem_ctrls.dram.totMemAccLat       150832018500                       # Total ticks spent from burst creation until serviced by the DRAM
system.mem_ctrls.dram.avgQLat                 9904.07                       # Average queueing delay per DRAM burst
system.mem_ctrls.dram.avgBusLat               5000.00                       # Average bus latency per DRAM burst
system.mem_ctrls.dram.avgMemAccLat           28654.07                       # Average memory access latency per DRAM burst
system.mem_ctrls.dram.readRowHits             4808446                       # Number of row buffer hits during reads
system.mem_ctrls.dram.writeRowHits            4887021                       # Number of row buffer hits during writes
system.mem_ctrls.dram.readRowHitRate            91.35                       # Row buffer hit rate for reads
system.mem_ctrls.dram.writeRowHitRate           93.00                       # Row buffer hit rate for writes
system.mem_ctrls.dram.bytesPerActivate::samples       823262                       # Bytes accessed per row activation
system.mem_ctrls.dram.bytesPerActivate::mean   817.720492                       # Bytes accessed per row activation
system.mem_ctrls.dram.bytesPerActivate::gmean   687.295293                       # Bytes accessed per row activation
system.mem_ctrls.dram.bytesPerActivate::stdev   321.159035                       # Bytes accessed per row activation
system.mem_ctrls.dram.bytesPerActivate::0-127        41063      4.99%      4.99% # Bytes accessed per row activation
system.mem_ctrls.dram.bytesPerActivate::128-255        33925      4.12%      9.11% # Bytes accessed per row activation
system.mem_ctrls.dram.bytesPerActivate::256-383        53050      6.44%     15.55% # Bytes accessed per row activation
system.mem_ctrls.dram.bytesPerActivate::384-511        33687      4.09%     19.64% # Bytes accessed per row activation
system.mem_ctrls.dram.bytesPerActivate::512-639        23180      2.82%     22.46% # Bytes accessed per row activation
system.mem_ctrls.dram.bytesPerActivate::640-767        41824      5.08%     27.54% # Bytes accessed per row activation
system.mem_ctrls.dram.bytesPerActivate::768-895        41691      5.06%     32.60% # Bytes accessed per row activation
system.mem_ctrls.dram.bytesPerActivate::896-1023        47715      5.80%     38.40% # Bytes accessed per row activation
system.mem_ctrls.dram.bytesPerActivate::1024-1151       507127     61.60%    100.00% # Bytes accessed per row activation
system.mem_ctrls.dram.bytesPerActivate::total       823262                       # Bytes accessed per row activation
system.mem_ctrls.dram.bytesRead             336889344                       # Total number of bytes read from DRAM
system.mem_ctrls.dram.bytesWritten          336309376                       # Total number of bytes written to DRAM
system.mem_ctrls.dram.avgRdBW              477.424400                       # Average DRAM read bandwidth in MiBytes/s
system.mem_ctrls.dram.avgWrBW              476.602496                       # Average DRAM write bandwidth in MiBytes/s
system.mem_ctrls.dram.peakBW                 12800.00                       # Theoretical peak bandwidth in MiByte/s
system.mem_ctrls.dram.busUtil                    7.45                       # Data bus utilization in percentage
system.mem_ctrls.dram.busUtilRead                3.73                       # Data bus utilization in percentage for reads
system.mem_ctrls.dram.busUtilWrite               3.72                       # Data bus utilization in percentage for writes
system.mem_ctrls.dram.pageHitRate               92.17                       # Row buffer hit rate, read and write combined
system.mem_ctrls.dram.power_state.pwrStateResidencyTicks::UNDEFINED 705639142000                       # Cumulative time (in ticks) in various power states
system.mem_ctrls.dram.rank0.actEnergy      2938945380                       # Energy for activate commands per rank (pJ)
system.mem_ctrls.dram.rank0.preEnergy      1562082720                       # Energy for precharge commands per rank (pJ)
system.mem_ctrls.dram.rank0.readEnergy    18794793360                       # Energy for read commands per rank (pJ)
system.mem_ctrls.dram.rank0.writeEnergy   13717168200                       # Energy for write commands per rank (pJ)
system.mem_ctrls.dram.rank0.refreshEnergy 55702364640.000008                       # Energy for refresh commands per rank (pJ)
system.mem_ctrls.dram.rank0.actBackEnergy 166015106040                       # Energy for active background per rank (pJ)
system.mem_ctrls.dram.rank0.preBackEnergy 131163236160                       # Energy for precharge background per rank (pJ)
system.mem_ctrls.dram.rank0.actPowerDownEnergy            0                       # Energy for active power-down per rank (pJ)
system.mem_ctrls.dram.rank0.prePowerDownEnergy            0                       # Energy for precharge power-down per rank (pJ)
system.mem_ctrls.dram.rank0.selfRefreshEnergy            0                       # Energy for self refresh per rank (pJ)
system.mem_ctrls.dram.rank0.totalEnergy  389893696500                       # Total energy per rank (pJ)
system.mem_ctrls.dram.rank0.averagePower   552.539780                       # Core power per rank (mW)
system.mem_ctrls.dram.rank0.totalIdleTime            0                       # Total Idle time Per DRAM Rank
system.mem_ctrls.dram.rank0.pwrStateTime::IDLE 336484227750                       # Time in different power states
system.mem_ctrls.dram.rank0.pwrStateTime::REF  23562760000                       # Time in different power states
system.mem_ctrls.dram.rank0.pwrStateTime::SREF            0                       # Time in different power states
system.mem_ctrls.dram.rank0.pwrStateTime::PRE_PDN            0                       # Time in different power states
system.mem_ctrls.dram.rank0.pwrStateTime::ACT 345592154250                       # Time in different power states
system.mem_ctrls.dram.rank0.pwrStateTime::ACT_PDN            0                       # Time in different power states
system.mem_ctrls.dram.rank1.actEnergy      2939152440                       # Energy for activate commands per rank (pJ)
system.mem_ctrls.dram.rank1.preEnergy      1562196570                       # Energy for precharge commands per rank (pJ)
system.mem_ctrls.dram.rank1.readEnergy    18789424080                       # Energy for read commands per rank (pJ)
system.mem_ctrls.dram.rank1.writeEnergy   13713065280                       # Energy for write commands per rank (pJ)
system.mem_ctrls.dram.rank1.refreshEnergy 55702364640.000008                       # Energy for refresh commands per rank (pJ)
system.mem_ctrls.dram.rank1.actBackEnergy 165985760730                       # Energy for active background per rank (pJ)
system.mem_ctrls.dram.rank1.preBackEnergy 131187948000                       # Energy for precharge background per rank (pJ)
system.mem_ctrls.dram.rank1.actPowerDownEnergy            0                       # Energy for active power-down per rank (pJ)
system.mem_ctrls.dram.rank1.prePowerDownEnergy            0                       # Energy for precharge power-down per rank (pJ)
system.mem_ctrls.dram.rank1.selfRefreshEnergy            0                       # Energy for self refresh per rank (pJ)
system.mem_ctrls.dram.rank1.totalEnergy  389879911740                       # Total energy per rank (pJ)
system.mem_ctrls.dram.rank1.averagePower   552.520245                       # Core power per rank (mW)
system.mem_ctrls.dram.rank1.totalIdleTime            0                       # Total Idle time Per DRAM Rank
system.mem_ctrls.dram.rank1.pwrStateTime::IDLE 336547896000                       # Time in different power states
system.mem_ctrls.dram.rank1.pwrStateTime::REF  23562760000                       # Time in different power states
system.mem_ctrls.dram.rank1.pwrStateTime::SREF            0                       # Time in different power states
system.mem_ctrls.dram.rank1.pwrStateTime::PRE_PDN            0                       # Time in different power states
system.mem_ctrls.dram.rank1.pwrStateTime::ACT 345528486000                       # Time in different power states
system.mem_ctrls.dram.rank1.pwrStateTime::ACT_PDN            0                       # Time in different power states
system.mem_ctrls.power_state.pwrStateResidencyTicks::UNDEFINED 705639142000                       # Cumulative time (in ticks) in various power states
system.membus.trans_dist::ReadResp                874                       # Transaction distribution
system.membus.trans_dist::WritebackDirty      5254859                       # Transaction distribution
system.membus.trans_dist::CleanEvict              464                       # Transaction distribution
system.membus.trans_dist::ReadExReq           5263022                       # Transaction distribution
system.membus.trans_dist::ReadExResp          5263022                       # Transaction distribution
system.membus.trans_dist::ReadSharedReq           874                       # Transaction distribution
system.membus.pkt_count_system.l2.mem_side_port::system.mem_ctrls.port     15783115                       # Packet count per connected requestor and responder (bytes)
system.membus.pkt_count::total               15783115                       # Packet count per connected requestor and responder (bytes)
system.membus.pkt_size_system.l2.mem_side_port::system.mem_ctrls.port    673200320                       # Cumulative packet size per connected requestor and responder (bytes)
system.membus.pkt_size::total               673200320                       # Cumulative packet size per connected requestor and responder (bytes)
system.membus.snoops                                0                       # Total snoops (count)
system.membus.snoopTraffic                          0                       # Total snoop traffic (bytes)
system.membus.snoop_fanout::samples           5263896                       # Request fanout histogram
system.membus.snoop_fanout::mean                    0                       # Request fanout histogram
system.membus.snoop_fanout::stdev                   0                       # Request fanout histogram
system.membus.snoop_fanout::underflows              0      0.00%      0.00% # Request fanout histogram
system.membus.snoop_fanout::0                 5263896    100.00%    100.00% # Request fanout histogram
system.membus.snoop_fanout::1                       0      0.00%    100.00% # Request fanout histogram
system.membus.snoop_fanout::overflows               0      0.00%    100.00% # Request fanout histogram
system.membus.snoop_fanout::min_value               0                       # Request fanout histogram
system.membus.snoop_fanout::max_value               0                       # Request fanout histogram
system.membus.snoop_fanout::total             5263896                       # Request fanout histogram
system.membus.power_state.pwrStateResidencyTicks::UNDEFINED 705639142000                       # Cumulative time (in ticks) in various power states
system.membus.reqLayer0.occupancy         31538655000                       # Layer occupancy (ticks)
system.membus.reqLayer0.utilization               4.5                       # Layer utilization (%)
system.membus.respLayer1.occupancy        27697167500                       # Layer occupancy (ticks)
system.membus.respLayer1.utilization              3.9                       # Layer utilization (%)
system.tol2bus.trans_dist::ReadResp              4367                       # Transaction distribution
system.tol2bus.trans_dist::WritebackDirty     10521127                       # Transaction distribution
system.tol2bus.trans_dist::WritebackClean          309                       # Transaction distribution
system.tol2bus.trans_dist::CleanEvict            4081                       # Transaction distribution
system.tol2bus.trans_dist::ReadExReq          5266235                       # Transaction distribution
system.tol2bus.trans_dist::ReadExResp         5266235                       # Transaction distribution
system.tol2bus.trans_dist::ReadCleanReq           679                       # Transaction distribution
system.tol2bus.trans_dist::ReadSharedReq         3688                       # Transaction distribution
system.tol2bus.pkt_count_system.cpu.icache.mem_side_port::system.l2.cpu_side_port         1667                       # Packet count per connected requestor and responder (bytes)
system.tol2bus.pkt_count_system.cpu.dcache.mem_side_port::system.l2.cpu_side_port     15809257                       # Packet count per connected requestor and responder (bytes)
system.tol2bus.pkt_count::total              15810924                       # Packet count per connected requestor and responder (bytes)
system.tol2bus.pkt_size_system.cpu.icache.mem_side_port::system.l2.cpu_side_port        63232                       # Cumulative packet size per connected requestor and responder (bytes)
system.tol2bus.pkt_size_system.cpu.dcache.mem_side_port::system.l2.cpu_side_port    674316224                       # Cumulative packet size per connected requestor and responder (bytes)
system.tol2bus.pkt_size::total              674379456                       # Cumulative packet size per connected requestor and responder (bytes)
system.tol2bus.snoops                         5255797                       # Total snoops (count)
system.tol2bus.snoopTraffic                 336310976                       # Total snoop traffic (bytes)
system.tol2bus.snoop_fanout::samples         10526399                       # Request fanout histogram
system.tol2bus.snoop_fanout::mean            0.000105                       # Request fanout histogram
system.tol2bus.snoop_fanout::stdev           0.010259                       # Request fanout histogram
system.tol2bus.snoop_fanout::underflows             0      0.00%      0.00% # Request fanout histogram
system.tol2bus.snoop_fanout::0               10525291     99.99%     99.99% # Request fanout histogram
system.tol2bus.snoop_fanout::1                   1108      0.01%    100.00% # Request fanout histogram
system.tol2bus.snoop_fanout::2                      0      0.00%    100.00% # Request fanout histogram
system.tol2bus.snoop_fanout::overflows              0      0.00%    100.00% # Request fanout histogram
system.tol2bus.snoop_fanout::min_value              0                       # Request fanout histogram
system.tol2bus.snoop_fanout::max_value              1                       # Request fanout histogram
system.tol2bus.snoop_fanout::total           10526399                       # Request fanout histogram
system.tol2bus.power_state.pwrStateResidencyTicks::UNDEFINED 705639142000                       # Cumulative time (in ticks) in various power states
system.tol2bus.reqLayer0.occupancy        21073476000                       # Layer occupancy (ticks)
system.tol2bus.reqLayer0.utilization              3.0                       # Layer utilization (%)
system.tol2bus.respLayer0.occupancy           2037000                       # Layer occupancy (ticks)
system.tol2bus.respLayer0.utilization             0.0                       # Layer utilization (%)
system.tol2bus.respLayer1.occupancy       15809775993                       # Layer occupancy (ticks)
system.tol2bus.respLayer1.utilization             2.2                       # Layer utilization (%)
system.voltage_domain.voltage                       1                       # Voltage in Volts

---------- End Simulation Statistics   ----------
