
---------- Begin Simulation Statistics ----------
final_tick                               270355093000                       # Number of ticks from beginning of simulation (restored from checkpoints and never reset)
host_inst_rate                                 129536                       # Simulator instruction rate (inst/s)
host_mem_usage                                 654072                       # Number of bytes of host memory used
host_op_rate                                   129541                       # Simulator op (including micro ops) rate (op/s)
host_seconds                                   771.99                       # Real time elapsed on the host
host_tick_rate                              350207401                       # Simulator tick rate (ticks/s)
sim_freq                                 1000000000000                       # Frequency of simulated ticks
sim_insts                                   100000000                       # Number of instructions simulated
sim_ops                                     100003676                       # Number of ops (including micro ops) simulated
sim_seconds                                  0.270355                       # Number of seconds simulated
sim_ticks                                270355093000                       # Number of ticks simulated
system.cpu.committedInsts                   100000000                       # Number of instructions committed
system.cpu.committedOps                     100003676                       # Number of ops (including micro ops) committed
system.cpu.cpi                               2.703551                       # CPI: cycles per instruction
system.cpu.discardedOps                         21316                       # Number of ops (including micro ops) which were discarded before commit
system.cpu.idleCycles                       152730138                       # Total number of cycles that the object has spent stopped
system.cpu.ipc                               0.369884                       # IPC: instructions per cycle
system.cpu.numCycles                        270355093                       # number of cpu cycles simulated
system.cpu.numFetchSuspends                         0                       # Number of times Execute suspended instruction fetching
system.cpu.numWorkItemsCompleted                    0                       # number of work items this cpu completed
system.cpu.numWorkItemsStarted                      0                       # number of work items this cpu started
system.cpu.op_class_0::No_OpClass                   0      0.00%      0.00% # Class of committed instruction
system.cpu.op_class_0::IntAlu                49995472     49.99%     49.99% # Class of committed instruction
system.cpu.op_class_0::IntMult                     88      0.00%     49.99% # Class of committed instruction
system.cpu.op_class_0::IntDiv                       0      0.00%     49.99% # Class of committed instruction
system.cpu.op_class_0::FloatAdd                     0      0.00%     49.99% # Class of committed instruction
system.cpu.op_class_0::FloatCmp                     0      0.00%     49.99% # Class of committed instruction
system.cpu.op_class_0::FloatCvt                     0      0.00%     49.99% # Class of committed instruction
system.cpu.op_class_0::FloatMult                    0      0.00%     49.99% # Class of committed instruction
system.cpu.op_class_0::FloatMultAcc                 0      0.00%     49.99% # Class of committed instruction
system.cpu.op_class_0::FloatDiv                     0      0.00%     49.99% # Class of committed instruction
system.cpu.op_class_0::FloatMisc                    0      0.00%     49.99% # Class of committed instruction
system.cpu.op_class_0::FloatSqrt                    0      0.00%     49.99% # Class of committed instruction
system.cpu.op_class_0::SimdAdd                      0      0.00%     49.99% # Class of committed instruction
system.cpu.op_class_0::SimdAddAcc                   0      0.00%     49.99% # Class of committed instruction
system.cpu.op_class_0::SimdAlu                      0      0.00%     49.99% # Class of committed instruction
system.cpu.op_class_0::SimdCmp                      0      0.00%     49.99% # Class of committed instruction
system.cpu.op_class_0::SimdCvt                      0      0.00%     49.99% # Class of committed instruction
system.cpu.op_class_0::SimdMisc                     0      0.00%     49.99% # Class of committed instruction
system.cpu.op_class_0::SimdMult                     0      0.00%     49.99% # Class of committed instruction
system.cpu.op_class_0::SimdMultAcc                  0      0.00%     49.99% # Class of committed instruction
system.cpu.op_class_0::SimdShift                    0      0.00%     49.99% # Class of committed instruction
system.cpu.op_class_0::SimdShiftAcc                 0      0.00%     49.99% # Class of committed instruction
system.cpu.op_class_0::SimdDiv                      0      0.00%     49.99% # Class of committed instruction
system.cpu.op_class_0::SimdSqrt                     0      0.00%     49.99% # Class of committed instruction
system.cpu.op_class_0::SimdFloatAdd                 0      0.00%     49.99% # Class of committed instruction
system.cpu.op_class_0::SimdFloatAlu                 0      0.00%     49.99% # Class of committed instruction
system.cpu.op_class_0::SimdFloatCmp                 2      0.00%     49.99% # Class of committed instruction
system.cpu.op_class_0::SimdFloatCvt                 0      0.00%     49.99% # Class of committed instruction
system.cpu.op_class_0::SimdFloatDiv                 0      0.00%     49.99% # Class of committed instruction
system.cpu.op_class_0::SimdFloatMisc               22      0.00%     49.99% # Class of committed instruction
system.cpu.op_class_0::SimdFloatMult                0      0.00%     49.99% # Class of committed instruction
system.cpu.op_class_0::SimdFloatMultAcc             0      0.00%     49.99% # Class of committed instruction
system.cpu.op_class_0::SimdFloatSqrt                0      0.00%     49.99% # Class of committed instruction
system.cpu.op_class_0::SimdReduceAdd                0      0.00%     49.99% # Class of committed instruction
system.cpu.op_class_0::SimdReduceAlu                0      0.00%     49.99% # Class of committed instruction
system.cpu.op_class_0::SimdReduceCmp                0      0.00%     49.99% # Class of committed instruction
system.cpu.op_class_0::SimdFloatReduceAdd            0      0.00%     49.99% # Class of committed instruction
system.cpu.op_class_0::SimdFloatReduceCmp            0      0.00%     49.99% # Class of committed instruction
system.cpu.op_class_0::SimdAes                      0      0.00%     49.99% # Class of committed instruction
system.cpu.op_class_0::SimdAesMix                   0      0.00%     49.99% # Class of committed instruction
system.cpu.op_class_0::SimdSha1Hash                 0      0.00%     49.99% # Class of committed instruction
system.cpu.op_class_0::SimdSha1Hash2                0      0.00%     49.99% # Class of committed instruction
system.cpu.op_class_0::SimdSha256Hash               0      0.00%     49.99% # Class of committed instruction
system.cpu.op_class_0::SimdSha256Hash2              0      0.00%     49.99% # Class of committed instruction
system.cpu.op_class_0::SimdShaSigma2                0      0.00%     49.99% # Class of committed instruction
system.cpu.op_class_0::SimdShaSigma3                0      0.00%     49.99% # Class of committed instruction
system.cpu.op_class_0::SimdPredAlu                  0      0.00%     49.99% # Class of committed instruction
system.cpu.op_class_0::MemRead               36892238     36.89%     86.88% # Class of committed instruction
system.cpu.op_class_0::MemWrite              13115854     13.12%    100.00% # Class of committed instruction
system.cpu.op_class_0::FloatMemRead                 0      0.00%    100.00% # Class of committed instruction
system.cpu.op_class_0::FloatMemWrite                0      0.00%    100.00% # Class of committed instruction
system.cpu.op_class_0::IprAccess                    0      0.00%    100.00% # Class of committed instruction
system.cpu.op_class_0::InstPrefetch                 0      0.00%    100.00% # Class of committed instruction
system.cpu.op_class_0::total                100003676                       # Class of committed instruction
system.cpu.tickCycles                       117624955                       # Number of cycles that the object actually ticked
system.cpu.workload.numSyscalls                    19                       # Number of system calls
system.membus.snoop_filter.hit_multi_requests            0                       # Number of requests hitting in the snoop filter with multiple (>1) holders of the requested data.
system.membus.snoop_filter.hit_multi_snoops            0                       # Number of snoops hitting in the snoop filter with multiple (>1) holders of the requested data.
system.membus.snoop_filter.hit_single_requests      1479520                       # Number of requests hitting in the snoop filter with a single holder of the requested data.
system.membus.snoop_filter.hit_single_snoops            0                       # Number of snoops hitting in the snoop filter with a single holder of the requested data.
system.membus.snoop_filter.tot_requests       2967633                       # Total number of requests made to the snoop filter.
system.membus.snoop_filter.tot_snoops               0                       # Total number of snoops made to the snoop filter.
system.tol2bus.snoop_filter.hit_multi_requests        46517                       # Number of requests hitting in the snoop filter with multiple (>1) holders of the requested data.
system.tol2bus.snoop_filter.hit_multi_snoops            0                       # Number of snoops hitting in the snoop filter with multiple (>1) holders of the requested data.
system.tol2bus.snoop_filter.hit_single_requests      1650586                       # Number of requests hitting in the snoop filter with a single holder of the requested data.
system.tol2bus.snoop_filter.hit_single_snoops          401                       # Number of snoops hitting in the snoop filter with a single holder of the requested data.
system.tol2bus.snoop_filter.tot_requests      3301700                       # Total number of requests made to the snoop filter.
system.tol2bus.snoop_filter.tot_snoops            401                       # Total number of snoops made to the snoop filter.
system.clk_domain.clock                          1000                       # Clock period in ticks
system.cpu.branchPred.lookups                  606745                       # Number of BP lookups
system.cpu.branchPred.condPredicted            604636                       # Number of conditional branches predicted
system.cpu.branchPred.condIncorrect               830                       # Number of conditional branches incorrect
system.cpu.branchPred.BTBLookups               602597                       # Number of BTB lookups
system.cpu.branchPred.BTBHits                  601493                       # Number of BTB hits
system.cpu.branchPred.BTBHitPct             99.816793                       # BTB Hit Percentage
system.cpu.branchPred.RASUsed                     565                       # Number of times the RAS was used to get a target.
system.cpu.branchPred.RASIncorrect                  1                       # Number of incorrect RAS predictions.
system.cpu.branchPred.indirectLookups             375                       # Number of indirect predictor lookups.
system.cpu.branchPred.indirectHits                171                       # Number of indirect target hits.
system.cpu.branchPred.indirectMisses              204                       # Number of indirect misses.
system.cpu.branchPred.indirectMispredicted          104                       # Number of mispredicted indirect branches.
system.cpu.dcache.demand_hits::.cpu.data     45589774                       # number of demand (read+write) hits
system.cpu.dcache.demand_hits::total         45589774                       # number of demand (read+write) hits
system.cpu.dcache.overall_hits::.cpu.data     45589805                       # number of overall hits
system.cpu.dcache.overall_hits::total        45589805                       # number of overall hits
system.cpu.dcache.demand_misses::.cpu.data      3205379                       # number of demand (read+write) misses
system.cpu.dcache.demand_misses::total        3205379                       # number of demand (read+write) misses
system.cpu.dcache.overall_misses::.cpu.data      3205401                       # number of overall misses
system.cpu.dcache.overall_misses::total       3205401                       # number of overall misses
system.cpu.dcache.demand_miss_latency::.cpu.data 313254556000                       # number of demand (read+write) miss cycles
system.cpu.dcache.demand_miss_latency::total 313254556000                       # number of demand (read+write) miss cycles
system.cpu.dcache.overall_miss_latency::.cpu.data 313254556000                       # number of overall miss cycles
system.cpu.dcache.overall_miss_latency::total 313254556000                       # number of overall miss cycles
system.cpu.dcache.demand_accesses::.cpu.data     48795153                       # number of demand (read+write) accesses
system.cpu.dcache.demand_accesses::total     48795153                       # number of demand (read+write) accesses
system.cpu.dcache.overall_accesses::.cpu.data     48795206                       # number of overall (read+write) accesses
system.cpu.dcache.overall_accesses::total     48795206                       # number of overall (read+write) accesses
system.cpu.dcache.demand_miss_rate::.cpu.data     0.065691                       # miss rate for demand accesses
system.cpu.dcache.demand_miss_rate::total     0.065691                       # miss rate for demand accesses
system.cpu.dcache.overall_miss_rate::.cpu.data     0.065691                       # miss rate for overall accesses
system.cpu.dcache.overall_miss_rate::total     0.065691                       # miss rate for overall accesses
system.cpu.dcache.demand_avg_miss_latency::.cpu.data 97727.774469                       # average overall miss latency
system.cpu.dcache.demand_avg_miss_latency::total 97727.774469                       # average overall miss latency
system.cpu.dcache.overall_avg_miss_latency::.cpu.data 97727.103723                       # average overall miss latency
system.cpu.dcache.overall_avg_miss_latency::total 97727.103723                       # average overall miss latency
system.cpu.dcache.blocked_cycles::no_mshrs            0                       # number of cycles access was blocked
system.cpu.dcache.blocked_cycles::no_targets            0                       # number of cycles access was blocked
system.cpu.dcache.blocked::no_mshrs                 0                       # number of cycles access was blocked
system.cpu.dcache.blocked::no_targets               0                       # number of cycles access was blocked
system.cpu.dcache.avg_blocked_cycles::no_mshrs          nan                       # average number of cycles each access was blocked
system.cpu.dcache.avg_blocked_cycles::no_targets          nan                       # average number of cycles each access was blocked
system.cpu.dcache.writebacks::.writebacks      1603701                       # number of writebacks
system.cpu.dcache.writebacks::total           1603701                       # number of writebacks
system.cpu.dcache.demand_mshr_hits::.cpu.data      1554898                       # number of demand (read+write) MSHR hits
system.cpu.dcache.demand_mshr_hits::total      1554898                       # number of demand (read+write) MSHR hits
system.cpu.dcache.overall_mshr_hits::.cpu.data      1554898                       # number of overall MSHR hits
system.cpu.dcache.overall_mshr_hits::total      1554898                       # number of overall MSHR hits
system.cpu.dcache.demand_mshr_misses::.cpu.data      1650481                       # number of demand (read+write) MSHR misses
system.cpu.dcache.demand_mshr_misses::total      1650481                       # number of demand (read+write) MSHR misses
system.cpu.dcache.overall_mshr_misses::.cpu.data      1650499                       # number of overall MSHR misses
system.cpu.dcache.overall_mshr_misses::total      1650499                       # number of overall MSHR misses
system.cpu.dcache.demand_mshr_miss_latency::.cpu.data 163840037000                       # number of demand (read+write) MSHR miss cycles
system.cpu.dcache.demand_mshr_miss_latency::total 163840037000                       # number of demand (read+write) MSHR miss cycles
system.cpu.dcache.overall_mshr_miss_latency::.cpu.data 163841516000                       # number of overall MSHR miss cycles
system.cpu.dcache.overall_mshr_miss_latency::total 163841516000                       # number of overall MSHR miss cycles
system.cpu.dcache.demand_mshr_miss_rate::.cpu.data     0.033825                       # mshr miss rate for demand accesses
system.cpu.dcache.demand_mshr_miss_rate::total     0.033825                       # mshr miss rate for demand accesses
system.cpu.dcache.overall_mshr_miss_rate::.cpu.data     0.033825                       # mshr miss rate for overall accesses
system.cpu.dcache.overall_mshr_miss_rate::total     0.033825                       # mshr miss rate for overall accesses
system.cpu.dcache.demand_avg_mshr_miss_latency::.cpu.data 99268.053979                       # average overall mshr miss latency
system.cpu.dcache.demand_avg_mshr_miss_latency::total 99268.053979                       # average overall mshr miss latency
system.cpu.dcache.overall_avg_mshr_miss_latency::.cpu.data 99267.867475                       # average overall mshr miss latency
system.cpu.dcache.overall_avg_mshr_miss_latency::total 99267.867475                       # average overall mshr miss latency
system.cpu.dcache.replacements                1650371                       # number of replacements
system.cpu.dcache.ReadReq_hits::.cpu.data     35609390                       # number of ReadReq hits
system.cpu.dcache.ReadReq_hits::total        35609390                       # number of ReadReq hits
system.cpu.dcache.ReadReq_misses::.cpu.data        93254                       # number of ReadReq misses
system.cpu.dcache.ReadReq_misses::total         93254                       # number of ReadReq misses
system.cpu.dcache.ReadReq_miss_latency::.cpu.data   4245955000                       # number of ReadReq miss cycles
system.cpu.dcache.ReadReq_miss_latency::total   4245955000                       # number of ReadReq miss cycles
system.cpu.dcache.ReadReq_accesses::.cpu.data     35702644                       # number of ReadReq accesses(hits+misses)
system.cpu.dcache.ReadReq_accesses::total     35702644                       # number of ReadReq accesses(hits+misses)
system.cpu.dcache.ReadReq_miss_rate::.cpu.data     0.002612                       # miss rate for ReadReq accesses
system.cpu.dcache.ReadReq_miss_rate::total     0.002612                       # miss rate for ReadReq accesses
system.cpu.dcache.ReadReq_avg_miss_latency::.cpu.data 45531.076415                       # average ReadReq miss latency
system.cpu.dcache.ReadReq_avg_miss_latency::total 45531.076415                       # average ReadReq miss latency
system.cpu.dcache.ReadReq_mshr_hits::.cpu.data           10                       # number of ReadReq MSHR hits
system.cpu.dcache.ReadReq_mshr_hits::total           10                       # number of ReadReq MSHR hits
system.cpu.dcache.ReadReq_mshr_misses::.cpu.data        93244                       # number of ReadReq MSHR misses
system.cpu.dcache.ReadReq_mshr_misses::total        93244                       # number of ReadReq MSHR misses
system.cpu.dcache.ReadReq_mshr_miss_latency::.cpu.data   4058799000                       # number of ReadReq MSHR miss cycles
system.cpu.dcache.ReadReq_mshr_miss_latency::total   4058799000                       # number of ReadReq MSHR miss cycles
system.cpu.dcache.ReadReq_mshr_miss_rate::.cpu.data     0.002612                       # mshr miss rate for ReadReq accesses
system.cpu.dcache.ReadReq_mshr_miss_rate::total     0.002612                       # mshr miss rate for ReadReq accesses
system.cpu.dcache.ReadReq_avg_mshr_miss_latency::.cpu.data 43528.795418                       # average ReadReq mshr miss latency
system.cpu.dcache.ReadReq_avg_mshr_miss_latency::total 43528.795418                       # average ReadReq mshr miss latency
system.cpu.dcache.WriteReq_hits::.cpu.data      9980384                       # number of WriteReq hits
system.cpu.dcache.WriteReq_hits::total        9980384                       # number of WriteReq hits
system.cpu.dcache.WriteReq_misses::.cpu.data      3112125                       # number of WriteReq misses
system.cpu.dcache.WriteReq_misses::total      3112125                       # number of WriteReq misses
system.cpu.dcache.WriteReq_miss_latency::.cpu.data 309008601000                       # number of WriteReq miss cycles
system.cpu.dcache.WriteReq_miss_latency::total 309008601000                       # number of WriteReq miss cycles
system.cpu.dcache.WriteReq_accesses::.cpu.data     13092509                       # number of WriteReq accesses(hits+misses)
system.cpu.dcache.WriteReq_accesses::total     13092509                       # number of WriteReq accesses(hits+misses)
system.cpu.dcache.WriteReq_miss_rate::.cpu.data     0.237703                       # miss rate for WriteReq accesses
system.cpu.dcache.WriteReq_miss_rate::total     0.237703                       # miss rate for WriteReq accesses
system.cpu.dcache.WriteReq_avg_miss_latency::.cpu.data 99291.834679                       # average WriteReq miss latency
system.cpu.dcache.WriteReq_avg_miss_latency::total 99291.834679                       # average WriteReq miss latency
system.cpu.dcache.WriteReq_mshr_hits::.cpu.data      1554888                       # number of WriteReq MSHR hits
system.cpu.dcache.WriteReq_mshr_hits::total      1554888                       # number of WriteReq MSHR hits
system.cpu.dcache.WriteReq_mshr_misses::.cpu.data      1557237                       # number of WriteReq MSHR misses
system.cpu.dcache.WriteReq_mshr_misses::total      1557237                       # number of WriteReq MSHR misses
system.cpu.dcache.WriteReq_mshr_miss_latency::.cpu.data 159781238000                       # number of WriteReq MSHR miss cycles
system.cpu.dcache.WriteReq_mshr_miss_latency::total 159781238000                       # number of WriteReq MSHR miss cycles
system.cpu.dcache.WriteReq_mshr_miss_rate::.cpu.data     0.118941                       # mshr miss rate for WriteReq accesses
system.cpu.dcache.WriteReq_mshr_miss_rate::total     0.118941                       # mshr miss rate for WriteReq accesses
system.cpu.dcache.WriteReq_avg_mshr_miss_latency::.cpu.data 102605.600817                       # average WriteReq mshr miss latency
system.cpu.dcache.WriteReq_avg_mshr_miss_latency::total 102605.600817                       # average WriteReq mshr miss latency
system.cpu.dcache.SoftPFReq_hits::.cpu.data           31                       # number of SoftPFReq hits
system.cpu.dcache.SoftPFReq_hits::total            31                       # number of SoftPFReq hits
system.cpu.dcache.SoftPFReq_misses::.cpu.data           22                       # number of SoftPFReq misses
system.cpu.dcache.SoftPFReq_misses::total           22                       # number of SoftPFReq misses
system.cpu.dcache.SoftPFReq_accesses::.cpu.data           53                       # number of SoftPFReq accesses(hits+misses)
system.cpu.dcache.SoftPFReq_accesses::total           53                       # number of SoftPFReq accesses(hits+misses)
system.cpu.dcache.SoftPFReq_miss_rate::.cpu.data     0.415094                       # miss rate for SoftPFReq accesses
system.cpu.dcache.SoftPFReq_miss_rate::total     0.415094                       # miss rate for SoftPFReq accesses
system.cpu.dcache.SoftPFReq_mshr_misses::.cpu.data           18                       # number of SoftPFReq MSHR misses
system.cpu.dcache.SoftPFReq_mshr_misses::total           18                       # number of SoftPFReq MSHR misses
system.cpu.dcache.SoftPFReq_mshr_miss_latency::.cpu.data      1479000                       # number of SoftPFReq MSHR miss cycles
system.cpu.dcache.SoftPFReq_mshr_miss_latency::total      1479000                       # number of SoftPFReq MSHR miss cycles
system.cpu.dcache.SoftPFReq_mshr_miss_rate::.cpu.data     0.339623                       # mshr miss rate for SoftPFReq accesses
system.cpu.dcache.SoftPFReq_mshr_miss_rate::total     0.339623                       # mshr miss rate for SoftPFReq accesses
system.cpu.dcache.SoftPFReq_avg_mshr_miss_latency::.cpu.data 82166.666667                       # average SoftPFReq mshr miss latency
system.cpu.dcache.SoftPFReq_avg_mshr_miss_latency::total 82166.666667                       # average SoftPFReq mshr miss latency
system.cpu.dcache.LoadLockedReq_hits::.cpu.data           14                       # number of LoadLockedReq hits
system.cpu.dcache.LoadLockedReq_hits::total           14                       # number of LoadLockedReq hits
system.cpu.dcache.LoadLockedReq_accesses::.cpu.data           14                       # number of LoadLockedReq accesses(hits+misses)
system.cpu.dcache.LoadLockedReq_accesses::total           14                       # number of LoadLockedReq accesses(hits+misses)
system.cpu.dcache.StoreCondReq_hits::.cpu.data           14                       # number of StoreCondReq hits
system.cpu.dcache.StoreCondReq_hits::total           14                       # number of StoreCondReq hits
system.cpu.dcache.StoreCondReq_accesses::.cpu.data           14                       # number of StoreCondReq accesses(hits+misses)
system.cpu.dcache.StoreCondReq_accesses::total           14                       # number of StoreCondReq accesses(hits+misses)
system.cpu.dcache.power_state.pwrStateResidencyTicks::UNDEFINED 270355093000                       # Cumulative time (in ticks) in various power states
system.cpu.dcache.tags.tagsinuse           127.981678                       # Cycle average of tags in use
system.cpu.dcache.tags.total_refs            47240332                       # Total number of references to valid blocks.
system.cpu.dcache.tags.sampled_refs           1650499                       # Sample count of references to valid blocks.
system.cpu.dcache.tags.avg_refs             28.621848                       # Average number of references to valid blocks.
system.cpu.dcache.tags.warmup_cycle            223000                       # Cycle when the warmup percentage was hit.
system.cpu.dcache.tags.occ_blocks::.cpu.data   127.981678                       # Average occupied blocks per requestor
system.cpu.dcache.tags.occ_percent::.cpu.data     0.999857                       # Average percentage of cache occupancy
system.cpu.dcache.tags.occ_percent::total     0.999857                       # Average percentage of cache occupancy
system.cpu.dcache.tags.occ_task_id_blocks::1024          128                       # Occupied blocks per task id
system.cpu.dcache.tags.age_task_id_blocks_1024::0           55                       # Occupied blocks per task id
system.cpu.dcache.tags.age_task_id_blocks_1024::1           73                       # Occupied blocks per task id
system.cpu.dcache.tags.occ_task_id_percent::1024            1                       # Percentage of cache occupancy per task id
system.cpu.dcache.tags.tag_accesses          50445733                       # Number of tag accesses
system.cpu.dcache.tags.data_accesses         50445733                       # Number of data accesses
system.cpu.dcache.tags.power_state.pwrStateResidencyTicks::UNDEFINED 270355093000                       # Cumulative time (in ticks) in various power states
system.cpu.dtb.instHits                             0                       # ITB inst hits
system.cpu.dtb.instMisses                           0                       # ITB inst misses
system.cpu.dtb.readHits                             0                       # DTB read hits
system.cpu.dtb.readMisses                           0                       # DTB read misses
system.cpu.dtb.writeHits                            0                       # DTB write hits
system.cpu.dtb.writeMisses                          0                       # DTB write misses
system.cpu.dtb.inserts                              0                       # Number of times an entry is inserted into the TLB
system.cpu.dtb.flushTlb                             0                       # Number of times complete TLB was flushed
system.cpu.dtb.flushTlbMva                          0                       # Number of times TLB was flushed by MVA
system.cpu.dtb.flushTlbMvaAsid                      0                       # Number of times TLB was flushed by MVA & ASID
system.cpu.dtb.flushTlbAsid                         0                       # Number of times TLB was flushed by ASID
system.cpu.dtb.flushedEntries                       0                       # Number of entries that have been flushed from TLB
system.cpu.dtb.alignFaults                          0                       # Number of TLB faults due to alignment restrictions
system.cpu.dtb.prefetchFaults                       0                       # Number of TLB faults due to prefetch
system.cpu.dtb.domainFaults                         0                       # Number of TLB faults due to domain restrictions
system.cpu.dtb.permsFaults                          0                       # Number of TLB faults due to permissions restrictions
system.cpu.dtb.readAccesses                         0                       # DTB read accesses
system.cpu.dtb.writeAccesses                        0                       # DTB write accesses
system.cpu.dtb.instAccesses                         0                       # ITB inst accesses
system.cpu.dtb.hits                                 0                       # Total TLB (inst and data) hits
system.cpu.dtb.misses                               0                       # Total TLB (inst and data) misses
system.cpu.dtb.accesses                             0                       # Total TLB (inst and data) accesses
system.cpu.dtb.stage2_mmu.stage2_tlb.instHits            0                       # ITB inst hits
system.cpu.dtb.stage2_mmu.stage2_tlb.instMisses            0                       # ITB inst misses
system.cpu.dtb.stage2_mmu.stage2_tlb.readHits            0                       # DTB read hits
system.cpu.dtb.stage2_mmu.stage2_tlb.readMisses            0                       # DTB read misses
system.cpu.dtb.stage2_mmu.stage2_tlb.writeHits            0                       # DTB write hits
system.cpu.dtb.stage2_mmu.stage2_tlb.writeMisses            0                       # DTB write misses
system.cpu.dtb.stage2_mmu.stage2_tlb.inserts            0                       # Number of times an entry is inserted into the TLB
system.cpu.dtb.stage2_mmu.stage2_tlb.flushTlb            0                       # Number of times complete TLB was flushed
system.cpu.dtb.stage2_mmu.stage2_tlb.flushTlbMva            0                       # Number of times TLB was flushed by MVA
system.cpu.dtb.stage2_mmu.stage2_tlb.flushTlbMvaAsid            0                       # Number of times TLB was flushed by MVA & ASID
system.cpu.dtb.stage2_mmu.stage2_tlb.flushTlbAsid            0                       # Number of times TLB was flushed by ASID
system.cpu.dtb.stage2_mmu.stage2_tlb.flushedEntries            0                       # Number of entries that have been flushed from TLB
system.cpu.dtb.stage2_mmu.stage2_tlb.alignFaults            0                       # Number of TLB faults due to alignment restrictions
system.cpu.dtb.stage2_mmu.stage2_tlb.prefetchFaults            0                       # Number of TLB faults due to prefetch
system.cpu.dtb.stage2_mmu.stage2_tlb.domainFaults            0                       # Number of TLB faults due to domain restrictions
system.cpu.dtb.stage2_mmu.stage2_tlb.permsFaults            0                       # Number of TLB faults due to permissions restrictions
system.cpu.dtb.stage2_mmu.stage2_tlb.readAccesses            0                       # DTB read accesses
system.cpu.dtb.stage2_mmu.stage2_tlb.writeAccesses            0                       # DTB write accesses
system.cpu.dtb.stage2_mmu.stage2_tlb.instAccesses            0                       # ITB inst accesses
system.cpu.dtb.stage2_mmu.stage2_tlb.hits            0                       # Total TLB (inst and data) hits
system.cpu.dtb.stage2_mmu.stage2_tlb.misses            0                       # Total TLB (inst and data) misses
system.cpu.dtb.stage2_mmu.stage2_tlb.accesses            0                       # Total TLB (inst and data) accesses
system.cpu.dtb.stage2_mmu.stage2_tlb.walker.walks            0                       # Table walker walks requested
system.cpu.dtb.stage2_mmu.stage2_tlb.walker.requestOrigin_Requested::Data            0                       # Table walker requests started/completed, data/inst
system.cpu.dtb.stage2_mmu.stage2_tlb.walker.requestOrigin_Requested::Inst            0                       # Table walker requests started/completed, data/inst
system.cpu.dtb.stage2_mmu.stage2_tlb.walker.requestOrigin_Requested::total            0                       # Table walker requests started/completed, data/inst
system.cpu.dtb.stage2_mmu.stage2_tlb.walker.requestOrigin_Completed::Data            0                       # Table walker requests started/completed, data/inst
system.cpu.dtb.stage2_mmu.stage2_tlb.walker.requestOrigin_Completed::Inst            0                       # Table walker requests started/completed, data/inst
system.cpu.dtb.stage2_mmu.stage2_tlb.walker.requestOrigin_Completed::total            0                       # Table walker requests started/completed, data/inst
system.cpu.dtb.stage2_mmu.stage2_tlb.walker.requestOrigin::total            0                       # Table walker requests started/completed, data/inst
system.cpu.dtb.stage2_mmu.stage2_tlb.walker.power_state.pwrStateResidencyTicks::UNDEFINED 270355093000                       # Cumulative time (in ticks) in various power states
system.cpu.dtb.walker.walks                         0                       # Table walker walks requested
system.cpu.dtb.walker.requestOrigin_Requested::Data            0                       # Table walker requests started/completed, data/inst
system.cpu.dtb.walker.requestOrigin_Requested::Inst            0                       # Table walker requests started/completed, data/inst
system.cpu.dtb.walker.requestOrigin_Requested::total            0                       # Table walker requests started/completed, data/inst
system.cpu.dtb.walker.requestOrigin_Completed::Data            0                       # Table walker requests started/completed, data/inst
system.cpu.dtb.walker.requestOrigin_Completed::Inst            0                       # Table walker requests started/completed, data/inst
system.cpu.dtb.walker.requestOrigin_Completed::total            0                       # Table walker requests started/completed, data/inst
system.cpu.dtb.walker.requestOrigin::total            0                       # Table walker requests started/completed, data/inst
system.cpu.dtb.walker.power_state.pwrStateResidencyTicks::UNDEFINED 270355093000                       # Cumulative time (in ticks) in various power states
system.cpu.fetch2.intInstructions            49670216                       # Number of integer instructions successfully decoded
system.cpu.fetch2.fpInstructions                    0                       # Number of floating point instructions successfully decoded
system.cpu.fetch2.vecInstructions                   0                       # Number of SIMD instructions successfully decoded
system.cpu.fetch2.loadInstructions           37092356                       # Number of memory load instructions successfully decoded
system.cpu.fetch2.storeInstructions          13161144                       # Number of memory store instructions successfully decoded
system.cpu.fetch2.amoInstructions                   0                       # Number of memory atomic instructions successfully decoded
system.cpu.icache.demand_hits::.cpu.inst      6046117                       # number of demand (read+write) hits
system.cpu.icache.demand_hits::total          6046117                       # number of demand (read+write) hits
system.cpu.icache.overall_hits::.cpu.inst      6046117                       # number of overall hits
system.cpu.icache.overall_hits::total         6046117                       # number of overall hits
system.cpu.icache.demand_misses::.cpu.inst          616                       # number of demand (read+write) misses
system.cpu.icache.demand_misses::total            616                       # number of demand (read+write) misses
system.cpu.icache.overall_misses::.cpu.inst          616                       # number of overall misses
system.cpu.icache.overall_misses::total           616                       # number of overall misses
system.cpu.icache.demand_miss_latency::.cpu.inst     54306000                       # number of demand (read+write) miss cycles
system.cpu.icache.demand_miss_latency::total     54306000                       # number of demand (read+write) miss cycles
system.cpu.icache.overall_miss_latency::.cpu.inst     54306000                       # number of overall miss cycles
system.cpu.icache.overall_miss_latency::total     54306000                       # number of overall miss cycles
system.cpu.icache.demand_accesses::.cpu.inst      6046733                       # number of demand (read+write) accesses
system.cpu.icache.demand_accesses::total      6046733                       # number of demand (read+write) accesses
system.cpu.icache.overall_accesses::.cpu.inst      6046733                       # number of overall (read+write) accesses
system.cpu.icache.overall_accesses::total      6046733                       # number of overall (read+write) accesses
system.cpu.icache.demand_miss_rate::.cpu.inst     0.000102                       # miss rate for demand accesses
system.cpu.icache.demand_miss_rate::total     0.000102                       # miss rate for demand accesses
system.cpu.icache.overall_miss_rate::.cpu.inst     0.000102                       # miss rate for overall accesses
system.cpu.icache.overall_miss_rate::total     0.000102                       # miss rate for overall accesses
system.cpu.icache.demand_avg_miss_latency::.cpu.inst 88159.090909                       # average overall miss latency
system.cpu.icache.demand_avg_miss_latency::total 88159.090909                       # average overall miss latency
system.cpu.icache.overall_avg_miss_latency::.cpu.inst 88159.090909                       # average overall miss latency
system.cpu.icache.overall_avg_miss_latency::total 88159.090909                       # average overall miss latency
system.cpu.icache.blocked_cycles::no_mshrs            0                       # number of cycles access was blocked
system.cpu.icache.blocked_cycles::no_targets            0                       # number of cycles access was blocked
system.cpu.icache.blocked::no_mshrs                 0                       # number of cycles access was blocked
system.cpu.icache.blocked::no_targets               0                       # number of cycles access was blocked
system.cpu.icache.avg_blocked_cycles::no_mshrs          nan                       # average number of cycles each access was blocked
system.cpu.icache.avg_blocked_cycles::no_targets          nan                       # average number of cycles each access was blocked
system.cpu.icache.writebacks::.writebacks          214                       # number of writebacks
system.cpu.icache.writebacks::total               214                       # number of writebacks
system.cpu.icache.demand_mshr_misses::.cpu.inst          616                       # number of demand (read+write) MSHR misses
system.cpu.icache.demand_mshr_misses::total          616                       # number of demand (read+write) MSHR misses
system.cpu.icache.overall_mshr_misses::.cpu.inst          616                       # number of overall MSHR misses
system.cpu.icache.overall_mshr_misses::total          616                       # number of overall MSHR misses
system.cpu.icache.demand_mshr_miss_latency::.cpu.inst     53074000                       # number of demand (read+write) MSHR miss cycles
system.cpu.icache.demand_mshr_miss_latency::total     53074000                       # number of demand (read+write) MSHR miss cycles
system.cpu.icache.overall_mshr_miss_latency::.cpu.inst     53074000                       # number of overall MSHR miss cycles
system.cpu.icache.overall_mshr_miss_latency::total     53074000                       # number of overall MSHR miss cycles
system.cpu.icache.demand_mshr_miss_rate::.cpu.inst     0.000102                       # mshr miss rate for demand accesses
system.cpu.icache.demand_mshr_miss_rate::total     0.000102                       # mshr miss rate for demand accesses
system.cpu.icache.overall_mshr_miss_rate::.cpu.inst     0.000102                       # mshr miss rate for overall accesses
system.cpu.icache.overall_mshr_miss_rate::total     0.000102                       # mshr miss rate for overall accesses
system.cpu.icache.demand_avg_mshr_miss_latency::.cpu.inst 86159.090909                       # average overall mshr miss latency
system.cpu.icache.demand_avg_mshr_miss_latency::total 86159.090909                       # average overall mshr miss latency
system.cpu.icache.overall_avg_mshr_miss_latency::.cpu.inst 86159.090909                       # average overall mshr miss latency
system.cpu.icache.overall_avg_mshr_miss_latency::total 86159.090909                       # average overall mshr miss latency
system.cpu.icache.replacements                    214                       # number of replacements
system.cpu.icache.ReadReq_hits::.cpu.inst      6046117                       # number of ReadReq hits
system.cpu.icache.ReadReq_hits::total         6046117                       # number of ReadReq hits
system.cpu.icache.ReadReq_misses::.cpu.inst          616                       # number of ReadReq misses
system.cpu.icache.ReadReq_misses::total           616                       # number of ReadReq misses
system.cpu.icache.ReadReq_miss_latency::.cpu.inst     54306000                       # number of ReadReq miss cycles
system.cpu.icache.ReadReq_miss_latency::total     54306000                       # number of ReadReq miss cycles
system.cpu.icache.ReadReq_accesses::.cpu.inst      6046733                       # number of ReadReq accesses(hits+misses)
system.cpu.icache.ReadReq_accesses::total      6046733                       # number of ReadReq accesses(hits+misses)
system.cpu.icache.ReadReq_miss_rate::.cpu.inst     0.000102                       # miss rate for ReadReq accesses
system.cpu.icache.ReadReq_miss_rate::total     0.000102                       # miss rate for ReadReq accesses
system.cpu.icache.ReadReq_avg_miss_latency::.cpu.inst 88159.090909                       # average ReadReq miss latency
system.cpu.icache.ReadReq_avg_miss_latency::total 88159.090909                       # average ReadReq miss latency
system.cpu.icache.ReadReq_mshr_misses::.cpu.inst          616                       # number of ReadReq MSHR misses
system.cpu.icache.ReadReq_mshr_misses::total          616                       # number of ReadReq MSHR misses
system.cpu.icache.ReadReq_mshr_miss_latency::.cpu.inst     53074000                       # number of ReadReq MSHR miss cycles
system.cpu.icache.ReadReq_mshr_miss_latency::total     53074000                       # number of ReadReq MSHR miss cycles
system.cpu.icache.ReadReq_mshr_miss_rate::.cpu.inst     0.000102                       # mshr miss rate for ReadReq accesses
system.cpu.icache.ReadReq_mshr_miss_rate::total     0.000102                       # mshr miss rate for ReadReq accesses
system.cpu.icache.ReadReq_avg_mshr_miss_latency::.cpu.inst 86159.090909                       # average ReadReq mshr miss latency
system.cpu.icache.ReadReq_avg_mshr_miss_latency::total 86159.090909                       # average ReadReq mshr miss latency
system.cpu.icache.power_state.pwrStateResidencyTicks::UNDEFINED 270355093000                       # Cumulative time (in ticks) in various power states
system.cpu.icache.tags.tagsinuse           401.945377                       # Cycle average of tags in use
system.cpu.icache.tags.total_refs             6046733                       # Total number of references to valid blocks.
system.cpu.icache.tags.sampled_refs               616                       # Sample count of references to valid blocks.
system.cpu.icache.tags.avg_refs           9816.125000                       # Average number of references to valid blocks.
system.cpu.icache.tags.warmup_cycle            108000                       # Cycle when the warmup percentage was hit.
system.cpu.icache.tags.occ_blocks::.cpu.inst   401.945377                       # Average occupied blocks per requestor
system.cpu.icache.tags.occ_percent::.cpu.inst     0.392525                       # Average percentage of cache occupancy
system.cpu.icache.tags.occ_percent::total     0.392525                       # Average percentage of cache occupancy
system.cpu.icache.tags.occ_task_id_blocks::1024          402                       # Occupied blocks per task id
system.cpu.icache.tags.age_task_id_blocks_1024::4          402                       # Occupied blocks per task id
system.cpu.icache.tags.occ_task_id_percent::1024     0.392578                       # Percentage of cache occupancy per task id
system.cpu.icache.tags.tag_accesses           6047349                       # Number of tag accesses
system.cpu.icache.tags.data_accesses          6047349                       # Number of data accesses
system.cpu.icache.tags.power_state.pwrStateResidencyTicks::UNDEFINED 270355093000                       # Cumulative time (in ticks) in various power states
system.cpu.itb.instHits                             0                       # ITB inst hits
system.cpu.itb.instMisses                           0                       # ITB inst misses
system.cpu.itb.readHits                             0                       # DTB read hits
system.cpu.itb.readMisses                           0                       # DTB read misses
system.cpu.itb.writeHits                            0                       # DTB write hits
system.cpu.itb.writeMisses                          0                       # DTB write misses
system.cpu.itb.inserts                              0                       # Number of times an entry is inserted into the TLB
system.cpu.itb.flushTlb                             0                       # Number of times complete TLB was flushed
system.cpu.itb.flushTlbMva                          0                       # Number of times TLB was flushed by MVA
system.cpu.itb.flushTlbMvaAsid                      0                       # Number of times TLB was flushed by MVA & ASID
system.cpu.itb.flushTlbAsid                         0                       # Number of times TLB was flushed by ASID
system.cpu.itb.flushedEntries                       0                       # Number of entries that have been flushed from TLB
system.cpu.itb.alignFaults                          0                       # Number of TLB faults due to alignment restrictions
system.cpu.itb.prefetchFaults                       0                       # Number of TLB faults due to prefetch
system.cpu.itb.domainFaults                         0                       # Number of TLB faults due to domain restrictions
system.cpu.itb.permsFaults                          0                       # Number of TLB faults due to permissions restrictions
system.cpu.itb.readAccesses                         0                       # DTB read accesses
system.cpu.itb.writeAccesses                        0                       # DTB write accesses
system.cpu.itb.instAccesses                         0                       # ITB inst accesses
system.cpu.itb.hits                                 0                       # Total TLB (inst and data) hits
system.cpu.itb.misses                               0                       # Total TLB (inst and data) misses
system.cpu.itb.accesses                             0                       # Total TLB (inst and data) accesses
system.cpu.itb.stage2_mmu.stage2_tlb.instHits            0                       # ITB inst hits
system.cpu.itb.stage2_mmu.stage2_tlb.instMisses            0                       # ITB inst misses
system.cpu.itb.stage2_mmu.stage2_tlb.readHits            0                       # DTB read hits
system.cpu.itb.stage2_mmu.stage2_tlb.readMisses            0                       # DTB read misses
system.cpu.itb.stage2_mmu.stage2_tlb.writeHits            0                       # DTB write hits
system.cpu.itb.stage2_mmu.stage2_tlb.writeMisses            0                       # DTB write misses
system.cpu.itb.stage2_mmu.stage2_tlb.inserts            0                       # Number of times an entry is inserted into the TLB
system.cpu.itb.stage2_mmu.stage2_tlb.flushTlb            0                       # Number of times complete TLB was flushed
system.cpu.itb.stage2_mmu.stage2_tlb.flushTlbMva            0                       # Number of times TLB was flushed by MVA
system.cpu.itb.stage2_mmu.stage2_tlb.flushTlbMvaAsid            0                       # Number of times TLB was flushed by MVA & ASID
system.cpu.itb.stage2_mmu.stage2_tlb.flushTlbAsid            0                       # Number of times TLB was flushed by ASID
system.cpu.itb.stage2_mmu.stage2_tlb.flushedEntries            0                       # Number of entries that have been flushed from TLB
system.cpu.itb.stage2_mmu.stage2_tlb.alignFaults            0                       # Number of TLB faults due to alignment restrictions
system.cpu.itb.stage2_mmu.stage2_tlb.prefetchFaults            0                       # Number of TLB faults due to prefetch
system.cpu.itb.stage2_mmu.stage2_tlb.domainFaults            0                       # Number of TLB faults due to domain restrictions
system.cpu.itb.stage2_mmu.stage2_tlb.permsFaults            0                       # Number of TLB faults due to permissions restrictions
system.cpu.itb.stage2_mmu.stage2_tlb.readAccesses            0                       # DTB read accesses
system.cpu.itb.stage2_mmu.stage2_tlb.writeAccesses            0                       # DTB write accesses
system.cpu.itb.stage2_mmu.stage2_tlb.instAccesses            0                       # ITB inst accesses
system.cpu.itb.stage2_mmu.stage2_tlb.hits            0                       # Total TLB (inst and data) hits
system.cpu.itb.stage2_mmu.stage2_tlb.misses            0                       # Total TLB (inst and data) misses
system.cpu.itb.stage2_mmu.stage2_tlb.accesses            0                       # Total TLB (inst and data) accesses
system.cpu.itb.stage2_mmu.stage2_tlb.walker.walks            0                       # Table walker walks requested
system.cpu.itb.stage2_mmu.stage2_tlb.walker.requestOrigin_Requested::Data            0                       # Table walker requests started/completed, data/inst
system.cpu.itb.stage2_mmu.stage2_tlb.walker.requestOrigin_Requested::Inst            0                       # Table walker requests started/completed, data/inst
system.cpu.itb.stage2_mmu.stage2_tlb.walker.requestOrigin_Requested::total            0                       # Table walker requests started/completed, data/inst
system.cpu.itb.stage2_mmu.stage2_tlb.walker.requestOrigin_Completed::Data            0                       # Table walker requests started/completed, data/inst
system.cpu.itb.stage2_mmu.stage2_tlb.walker.requestOrigin_Completed::Inst            0                       # Table walker requests started/completed, data/inst
system.cpu.itb.stage2_mmu.stage2_tlb.walker.requestOrigin_Completed::total            0                       # Table walker requests started/completed, data/inst
system.cpu.itb.stage2_mmu.stage2_tlb.walker.requestOrigin::total            0                       # Table walker requests started/completed, data/inst
system.cpu.itb.stage2_mmu.stage2_tlb.walker.power_state.pwrStateResidencyTicks::UNDEFINED 270355093000                       # Cumulative time (in ticks) in various power states
system.cpu.itb.walker.walks                         0                       # Table walker walks requested
system.cpu.itb.walker.requestOrigin_Requested::Data            0                       # Table walker requests started/completed, data/inst
system.cpu.itb.walker.requestOrigin_Requested::Inst            0                       # Table walker requests started/completed, data/inst
system.cpu.itb.walker.requestOrigin_Requested::total            0                       # Table walker requests started/completed, data/inst
system.cpu.itb.walker.requestOrigin_Completed::Data            0                       # Table walker requests started/completed, data/inst
system.cpu.itb.walker.requestOrigin_Completed::Inst            0                       # Table walker requests started/completed, data/inst
system.cpu.itb.walker.requestOrigin_Completed::total            0                       # Table walker requests started/completed, data/inst
system.cpu.itb.walker.requestOrigin::total            0                       # Table walker requests started/completed, data/inst
system.cpu.itb.walker.power_state.pwrStateResidencyTicks::UNDEFINED 270355093000                       # Cumulative time (in ticks) in various power states
system.cpu.power_state.pwrStateResidencyTicks::ON 270355093000                       # Cumulative time (in ticks) in various power states
system.cpu.thread_0.numInsts                100000000                       # Number of Instructions committed
system.cpu.thread_0.numOps                  100003676                       # Number of Ops committed
system.cpu.thread_0.numMemRefs                      0                       # Number of Memory References
system.cpu_clk_domain.clock                      1000                       # Clock period in ticks
system.cpu_voltage_domain.voltage                   1                       # Voltage in Volts
system.l2.demand_hits::.cpu.inst                  114                       # number of demand (read+write) hits
system.l2.demand_hits::.cpu.data               162883                       # number of demand (read+write) hits
system.l2.demand_hits::total                   162997                       # number of demand (read+write) hits
system.l2.overall_hits::.cpu.inst                 114                       # number of overall hits
system.l2.overall_hits::.cpu.data              162883                       # number of overall hits
system.l2.overall_hits::total                  162997                       # number of overall hits
system.l2.demand_misses::.cpu.inst                502                       # number of demand (read+write) misses
system.l2.demand_misses::.cpu.data            1487616                       # number of demand (read+write) misses
system.l2.demand_misses::total                1488118                       # number of demand (read+write) misses
system.l2.overall_misses::.cpu.inst               502                       # number of overall misses
system.l2.overall_misses::.cpu.data           1487616                       # number of overall misses
system.l2.overall_misses::total               1488118                       # number of overall misses
system.l2.demand_miss_latency::.cpu.inst     48712000                       # number of demand (read+write) miss cycles
system.l2.demand_miss_latency::.cpu.data 151355537000                       # number of demand (read+write) miss cycles
system.l2.demand_miss_latency::total     151404249000                       # number of demand (read+write) miss cycles
system.l2.overall_miss_latency::.cpu.inst     48712000                       # number of overall miss cycles
system.l2.overall_miss_latency::.cpu.data 151355537000                       # number of overall miss cycles
system.l2.overall_miss_latency::total    151404249000                       # number of overall miss cycles
system.l2.demand_accesses::.cpu.inst              616                       # number of demand (read+write) accesses
system.l2.demand_accesses::.cpu.data          1650499                       # number of demand (read+write) accesses
system.l2.demand_accesses::total              1651115                       # number of demand (read+write) accesses
system.l2.overall_accesses::.cpu.inst             616                       # number of overall (read+write) accesses
system.l2.overall_accesses::.cpu.data         1650499                       # number of overall (read+write) accesses
system.l2.overall_accesses::total             1651115                       # number of overall (read+write) accesses
system.l2.demand_miss_rate::.cpu.inst        0.814935                       # miss rate for demand accesses
system.l2.demand_miss_rate::.cpu.data        0.901313                       # miss rate for demand accesses
system.l2.demand_miss_rate::total            0.901281                       # miss rate for demand accesses
system.l2.overall_miss_rate::.cpu.inst       0.814935                       # miss rate for overall accesses
system.l2.overall_miss_rate::.cpu.data       0.901313                       # miss rate for overall accesses
system.l2.overall_miss_rate::total           0.901281                       # miss rate for overall accesses
system.l2.demand_avg_miss_latency::.cpu.inst 97035.856574                       # average overall miss latency
system.l2.demand_avg_miss_latency::.cpu.data 101743.687215                       # average overall miss latency
system.l2.demand_avg_miss_latency::total 101742.099081                       # average overall miss latency
system.l2.overall_avg_miss_latency::.cpu.inst 97035.856574                       # average overall miss latency
system.l2.overall_avg_miss_latency::.cpu.data 101743.687215                       # average overall miss latency
system.l2.overall_avg_miss_latency::total 101742.099081                       # average overall miss latency
system.l2.blocked_cycles::no_mshrs                  0                       # number of cycles access was blocked
system.l2.blocked_cycles::no_targets                0                       # number of cycles access was blocked
system.l2.blocked::no_mshrs                         0                       # number of cycles access was blocked
system.l2.blocked::no_targets                       0                       # number of cycles access was blocked
system.l2.avg_blocked_cycles::no_mshrs            nan                       # average number of cycles each access was blocked
system.l2.avg_blocked_cycles::no_targets          nan                       # average number of cycles each access was blocked
system.l2.writebacks::.writebacks             1479326                       # number of writebacks
system.l2.writebacks::total                   1479326                       # number of writebacks
system.l2.demand_mshr_hits::.cpu.inst               2                       # number of demand (read+write) MSHR hits
system.l2.demand_mshr_hits::.cpu.data               3                       # number of demand (read+write) MSHR hits
system.l2.demand_mshr_hits::total                   5                       # number of demand (read+write) MSHR hits
system.l2.overall_mshr_hits::.cpu.inst              2                       # number of overall MSHR hits
system.l2.overall_mshr_hits::.cpu.data              3                       # number of overall MSHR hits
system.l2.overall_mshr_hits::total                  5                       # number of overall MSHR hits
system.l2.demand_mshr_misses::.cpu.inst           500                       # number of demand (read+write) MSHR misses
system.l2.demand_mshr_misses::.cpu.data       1487613                       # number of demand (read+write) MSHR misses
system.l2.demand_mshr_misses::total           1488113                       # number of demand (read+write) MSHR misses
system.l2.overall_mshr_misses::.cpu.inst          500                       # number of overall MSHR misses
system.l2.overall_mshr_misses::.cpu.data      1487613                       # number of overall MSHR misses
system.l2.overall_mshr_misses::total          1488113                       # number of overall MSHR misses
system.l2.demand_mshr_miss_latency::.cpu.inst     38538000                       # number of demand (read+write) MSHR miss cycles
system.l2.demand_mshr_miss_latency::.cpu.data 121603021000                       # number of demand (read+write) MSHR miss cycles
system.l2.demand_mshr_miss_latency::total 121641559000                       # number of demand (read+write) MSHR miss cycles
system.l2.overall_mshr_miss_latency::.cpu.inst     38538000                       # number of overall MSHR miss cycles
system.l2.overall_mshr_miss_latency::.cpu.data 121603021000                       # number of overall MSHR miss cycles
system.l2.overall_mshr_miss_latency::total 121641559000                       # number of overall MSHR miss cycles
system.l2.demand_mshr_miss_rate::.cpu.inst     0.811688                       # mshr miss rate for demand accesses
system.l2.demand_mshr_miss_rate::.cpu.data     0.901311                       # mshr miss rate for demand accesses
system.l2.demand_mshr_miss_rate::total       0.901278                       # mshr miss rate for demand accesses
system.l2.overall_mshr_miss_rate::.cpu.inst     0.811688                       # mshr miss rate for overall accesses
system.l2.overall_mshr_miss_rate::.cpu.data     0.901311                       # mshr miss rate for overall accesses
system.l2.overall_mshr_miss_rate::total      0.901278                       # mshr miss rate for overall accesses
system.l2.demand_avg_mshr_miss_latency::.cpu.inst        77076                       # average overall mshr miss latency
system.l2.demand_avg_mshr_miss_latency::.cpu.data 81743.720309                       # average overall mshr miss latency
system.l2.demand_avg_mshr_miss_latency::total 81742.151974                       # average overall mshr miss latency
system.l2.overall_avg_mshr_miss_latency::.cpu.inst        77076                       # average overall mshr miss latency
system.l2.overall_avg_mshr_miss_latency::.cpu.data 81743.720309                       # average overall mshr miss latency
system.l2.overall_avg_mshr_miss_latency::total 81742.151974                       # average overall mshr miss latency
system.l2.replacements                        1479921                       # number of replacements
system.l2.WritebackDirty_hits::.writebacks      1603701                       # number of WritebackDirty hits
system.l2.WritebackDirty_hits::total          1603701                       # number of WritebackDirty hits
system.l2.WritebackDirty_accesses::.writebacks      1603701                       # number of WritebackDirty accesses(hits+misses)
system.l2.WritebackDirty_accesses::total      1603701                       # number of WritebackDirty accesses(hits+misses)
system.l2.WritebackClean_hits::.writebacks          211                       # number of WritebackClean hits
system.l2.WritebackClean_hits::total              211                       # number of WritebackClean hits
system.l2.WritebackClean_accesses::.writebacks          211                       # number of WritebackClean accesses(hits+misses)
system.l2.WritebackClean_accesses::total          211                       # number of WritebackClean accesses(hits+misses)
system.l2.ReadExReq_hits::.cpu.data             69737                       # number of ReadExReq hits
system.l2.ReadExReq_hits::total                 69737                       # number of ReadExReq hits
system.l2.ReadExReq_misses::.cpu.data         1487500                       # number of ReadExReq misses
system.l2.ReadExReq_misses::total             1487500                       # number of ReadExReq misses
system.l2.ReadExReq_miss_latency::.cpu.data 151344060000                       # number of ReadExReq miss cycles
system.l2.ReadExReq_miss_latency::total  151344060000                       # number of ReadExReq miss cycles
system.l2.ReadExReq_accesses::.cpu.data       1557237                       # number of ReadExReq accesses(hits+misses)
system.l2.ReadExReq_accesses::total           1557237                       # number of ReadExReq accesses(hits+misses)
system.l2.ReadExReq_miss_rate::.cpu.data     0.955217                       # miss rate for ReadExReq accesses
system.l2.ReadExReq_miss_rate::total         0.955217                       # miss rate for ReadExReq accesses
system.l2.ReadExReq_avg_miss_latency::.cpu.data 101743.905882                       # average ReadExReq miss latency
system.l2.ReadExReq_avg_miss_latency::total 101743.905882                       # average ReadExReq miss latency
system.l2.ReadExReq_mshr_misses::.cpu.data      1487500                       # number of ReadExReq MSHR misses
system.l2.ReadExReq_mshr_misses::total        1487500                       # number of ReadExReq MSHR misses
system.l2.ReadExReq_mshr_miss_latency::.cpu.data 121594060000                       # number of ReadExReq MSHR miss cycles
system.l2.ReadExReq_mshr_miss_latency::total 121594060000                       # number of ReadExReq MSHR miss cycles
system.l2.ReadExReq_mshr_miss_rate::.cpu.data     0.955217                       # mshr miss rate for ReadExReq accesses
system.l2.ReadExReq_mshr_miss_rate::total     0.955217                       # mshr miss rate for ReadExReq accesses
system.l2.ReadExReq_avg_mshr_miss_latency::.cpu.data 81743.905882                       # average ReadExReq mshr miss latency
system.l2.ReadExReq_avg_mshr_miss_latency::total 81743.905882                       # average ReadExReq mshr miss latency
system.l2.ReadCleanReq_hits::.cpu.inst            114                       # number of ReadCleanReq hits
system.l2.ReadCleanReq_hits::total                114                       # number of ReadCleanReq hits
system.l2.ReadCleanReq_misses::.cpu.inst          502                       # number of ReadCleanReq misses
system.l2.ReadCleanReq_misses::total              502                       # number of ReadCleanReq misses
system.l2.ReadCleanReq_miss_latency::.cpu.inst     48712000                       # number of ReadCleanReq miss cycles
system.l2.ReadCleanReq_miss_latency::total     48712000                       # number of ReadCleanReq miss cycles
system.l2.ReadCleanReq_accesses::.cpu.inst          616                       # number of ReadCleanReq accesses(hits+misses)
system.l2.ReadCleanReq_accesses::total            616                       # number of ReadCleanReq accesses(hits+misses)
system.l2.ReadCleanReq_miss_rate::.cpu.inst     0.814935                       # miss rate for ReadCleanReq accesses
system.l2.ReadCleanReq_miss_rate::total      0.814935                       # miss rate for ReadCleanReq accesses
system.l2.ReadCleanReq_avg_miss_latency::.cpu.inst 97035.856574                       # average ReadCleanReq miss latency
system.l2.ReadCleanReq_avg_miss_latency::total 97035.856574                       # average ReadCleanReq miss latency
system.l2.ReadCleanReq_mshr_hits::.cpu.inst            2                       # number of ReadCleanReq MSHR hits
system.l2.ReadCleanReq_mshr_hits::total             2                       # number of ReadCleanReq MSHR hits
system.l2.ReadCleanReq_mshr_misses::.cpu.inst          500                       # number of ReadCleanReq MSHR misses
system.l2.ReadCleanReq_mshr_misses::total          500                       # number of ReadCleanReq MSHR misses
system.l2.ReadCleanReq_mshr_miss_latency::.cpu.inst     38538000                       # number of ReadCleanReq MSHR miss cycles
system.l2.ReadCleanReq_mshr_miss_latency::total     38538000                       # number of ReadCleanReq MSHR miss cycles
system.l2.ReadCleanReq_mshr_miss_rate::.cpu.inst     0.811688                       # mshr miss rate for ReadCleanReq accesses
system.l2.ReadCleanReq_mshr_miss_rate::total     0.811688                       # mshr miss rate for ReadCleanReq accesses
system.l2.ReadCleanReq_avg_mshr_miss_latency::.cpu.inst        77076                       # average ReadCleanReq mshr miss latency
system.l2.ReadCleanReq_avg_mshr_miss_latency::total        77076                       # average ReadCleanReq mshr miss latency
system.l2.ReadSharedReq_hits::.cpu.data         93146                       # number of ReadSharedReq hits
system.l2.ReadSharedReq_hits::total             93146                       # number of ReadSharedReq hits
system.l2.ReadSharedReq_misses::.cpu.data          116                       # number of ReadSharedReq misses
system.l2.ReadSharedReq_misses::total             116                       # number of ReadSharedReq misses
system.l2.ReadSharedReq_miss_latency::.cpu.data     11477000                       # number of ReadSharedReq miss cycles
system.l2.ReadSharedReq_miss_latency::total     11477000                       # number of ReadSharedReq miss cycles
system.l2.ReadSharedReq_accesses::.cpu.data        93262                       # number of ReadSharedReq accesses(hits+misses)
system.l2.ReadSharedReq_accesses::total         93262                       # number of ReadSharedReq accesses(hits+misses)
system.l2.ReadSharedReq_miss_rate::.cpu.data     0.001244                       # miss rate for ReadSharedReq accesses
system.l2.ReadSharedReq_miss_rate::total     0.001244                       # miss rate for ReadSharedReq accesses
system.l2.ReadSharedReq_avg_miss_latency::.cpu.data 98939.655172                       # average ReadSharedReq miss latency
system.l2.ReadSharedReq_avg_miss_latency::total 98939.655172                       # average ReadSharedReq miss latency
system.l2.ReadSharedReq_mshr_hits::.cpu.data            3                       # number of ReadSharedReq MSHR hits
system.l2.ReadSharedReq_mshr_hits::total            3                       # number of ReadSharedReq MSHR hits
system.l2.ReadSharedReq_mshr_misses::.cpu.data          113                       # number of ReadSharedReq MSHR misses
system.l2.ReadSharedReq_mshr_misses::total          113                       # number of ReadSharedReq MSHR misses
system.l2.ReadSharedReq_mshr_miss_latency::.cpu.data      8961000                       # number of ReadSharedReq MSHR miss cycles
system.l2.ReadSharedReq_mshr_miss_latency::total      8961000                       # number of ReadSharedReq MSHR miss cycles
system.l2.ReadSharedReq_mshr_miss_rate::.cpu.data     0.001212                       # mshr miss rate for ReadSharedReq accesses
system.l2.ReadSharedReq_mshr_miss_rate::total     0.001212                       # mshr miss rate for ReadSharedReq accesses
system.l2.ReadSharedReq_avg_mshr_miss_latency::.cpu.data 79300.884956                       # average ReadSharedReq mshr miss latency
system.l2.ReadSharedReq_avg_mshr_miss_latency::total 79300.884956                       # average ReadSharedReq mshr miss latency
system.l2.power_state.pwrStateResidencyTicks::UNDEFINED 270355093000                       # Cumulative time (in ticks) in various power states
system.l2.tags.tagsinuse                  8170.459495                       # Cycle average of tags in use
system.l2.tags.total_refs                     3255178                       # Total number of references to valid blocks.
system.l2.tags.sampled_refs                   1488113                       # Sample count of references to valid blocks.
system.l2.tags.avg_refs                      2.187454                       # Average number of references to valid blocks.
system.l2.tags.warmup_cycle                     87000                       # Cycle when the warmup percentage was hit.
system.l2.tags.occ_blocks::.cpu.inst         3.100658                       # Average occupied blocks per requestor
system.l2.tags.occ_blocks::.cpu.data      8167.358837                       # Average occupied blocks per requestor
system.l2.tags.occ_percent::.cpu.inst        0.000378                       # Average percentage of cache occupancy
system.l2.tags.occ_percent::.cpu.data        0.996992                       # Average percentage of cache occupancy
system.l2.tags.occ_percent::total            0.997371                       # Average percentage of cache occupancy
system.l2.tags.occ_task_id_blocks::1024          8192                       # Occupied blocks per task id
system.l2.tags.age_task_id_blocks_1024::0           55                       # Occupied blocks per task id
system.l2.tags.age_task_id_blocks_1024::1          497                       # Occupied blocks per task id
system.l2.tags.age_task_id_blocks_1024::2         4950                       # Occupied blocks per task id
system.l2.tags.age_task_id_blocks_1024::3         2688                       # Occupied blocks per task id
system.l2.tags.age_task_id_blocks_1024::4            2                       # Occupied blocks per task id
system.l2.tags.occ_task_id_percent::1024            1                       # Percentage of cache occupancy per task id
system.l2.tags.tag_accesses                   7998479                       # Number of tag accesses
system.l2.tags.data_accesses                  7998479                       # Number of data accesses
system.l2.tags.power_state.pwrStateResidencyTicks::UNDEFINED 270355093000                       # Cumulative time (in ticks) in various power states
system.mem_ctrls.avgPriority_.writebacks::samples   1479326.00                       # Average QoS priority value for accepted requests
system.mem_ctrls.avgPriority_.cpu.inst::samples       500.00                       # Average QoS priority value for accepted requests
system.mem_ctrls.avgPriority_.cpu.data::samples   1487613.00                       # Average QoS priority value for accepted requests
system.mem_ctrls.priorityMinLatency      0.000000018750                       # per QoS priority minimum request to response latency (s)
system.mem_ctrls.priorityMaxLatency      0.000769358500                       # per QoS priority maximum request to response latency (s)
system.mem_ctrls.numReadWriteTurnArounds        82274                       # Number of turnarounds from READ to WRITE
system.mem_ctrls.numWriteReadTurnArounds        82274                       # Number of turnarounds from WRITE to READ
system.mem_ctrls.numStayReadState             4460161                       # Number of times bus staying in READ state
system.mem_ctrls.numStayWriteState            1401331                       # Number of times bus staying in WRITE state
system.mem_ctrls.readReqs                     1488113                       # Number of read requests accepted
system.mem_ctrls.writeReqs                    1479326                       # Number of write requests accepted
system.mem_ctrls.readBursts                   1488113                       # Number of controller read bursts, including those serviced by the write queue
system.mem_ctrls.writeBursts                  1479326                       # Number of controller write bursts, including those merged in the write queue
system.mem_ctrls.servicedByWrQ                      0                       # Number of controller read bursts serviced by the write queue
system.mem_ctrls.mergedWrBursts                     0                       # Number of controller write bursts merged with an existing one
system.mem_ctrls.neitherReadNorWriteReqs            0                       # Number of requests that are neither read nor write
system.mem_ctrls.avgRdQLen                       1.00                       # Average read queue length when enqueuing
system.mem_ctrls.avgWrQLen                      24.70                       # Average write queue length when enqueuing
system.mem_ctrls.numRdRetry                         0                       # Number of times read queue was full causing retry
system.mem_ctrls.numWrRetry                         0                       # Number of times write queue was full causing retry
system.mem_ctrls.readPktSize::0                     0                       # Read request sizes (log2)
system.mem_ctrls.readPktSize::1                     0                       # Read request sizes (log2)
system.mem_ctrls.readPktSize::2                     0                       # Read request sizes (log2)
system.mem_ctrls.readPktSize::3                     0                       # Read request sizes (log2)
system.mem_ctrls.readPktSize::4                     0                       # Read request sizes (log2)
system.mem_ctrls.readPktSize::5                     0                       # Read request sizes (log2)
system.mem_ctrls.readPktSize::6               1488113                       # Read request sizes (log2)
system.mem_ctrls.writePktSize::0                    0                       # Write request sizes (log2)
system.mem_ctrls.writePktSize::1                    0                       # Write request sizes (log2)
system.mem_ctrls.writePktSize::2                    0                       # Write request sizes (log2)
system.mem_ctrls.writePktSize::3                    0                       # Write request sizes (log2)
system.mem_ctrls.writePktSize::4                    0                       # Write request sizes (log2)
system.mem_ctrls.writePktSize::5                    0                       # Write request sizes (log2)
system.mem_ctrls.writePktSize::6              1479326                       # Write request sizes (log2)
system.mem_ctrls.rdQLenPdf::0                 1488033                       # What read queue length does an incoming req see
system.mem_ctrls.rdQLenPdf::1                      74                       # What read queue length does an incoming req see
system.mem_ctrls.rdQLenPdf::2                       6                       # What read queue length does an incoming req see
system.mem_ctrls.rdQLenPdf::3                       0                       # What read queue length does an incoming req see
system.mem_ctrls.rdQLenPdf::4                       0                       # What read queue length does an incoming req see
system.mem_ctrls.rdQLenPdf::5                       0                       # What read queue length does an incoming req see
system.mem_ctrls.rdQLenPdf::6                       0                       # What read queue length does an incoming req see
system.mem_ctrls.rdQLenPdf::7                       0                       # What read queue length does an incoming req see
system.mem_ctrls.rdQLenPdf::8                       0                       # What read queue length does an incoming req see
system.mem_ctrls.rdQLenPdf::9                       0                       # What read queue length does an incoming req see
system.mem_ctrls.rdQLenPdf::10                      0                       # What read queue length does an incoming req see
system.mem_ctrls.rdQLenPdf::11                      0                       # What read queue length does an incoming req see
[...]
system.mem_ctrls.dram.bw_write::.writebacks    350194490                       # Write bandwidth from this memory (bytes/s)
system.mem_ctrls.dram.bw_write::total       350194490                       # Write bandwidth from this memory (bytes/s)
system.mem_ctrls.dram.bw_total::.writebacks    350194490                       # Total bandwidth to/from this memory (bytes/s)
system.mem_ctrls.dram.bw_total::.cpu.inst       118363                       # Total bandwidth to/from this memory (bytes/s)
system.mem_ctrls.dram.bw_total::.cpu.data    352156236                       # Total bandwidth to/from this memory (bytes/s)
system.mem_ctrls.dram.bw_total::total       702469089                       # Total bandwidth to/from this memory (bytes/s)
system.mem_ctrls.dram.readBursts              1488113                       # Number of DRAM read bursts
system.mem_ctrls.dram.writeBursts             1479298                       # Number of DRAM write bursts
system.mem_ctrls.dram.perBankRdBursts::0        93033                       # Per bank write bursts
system.mem_ctrls.dram.perBankRdBursts::1        92977                       # Per bank write bursts
system.mem_ctrls.dram.perBankRdBursts::2        93002                       # Per bank write bursts
system.mem_ctrls.dram.perBankRdBursts::3        92952                       # Per bank write bursts
system.mem_ctrls.dram.perBankRdBursts::4        92982                       # Per bank write bursts
system.mem_ctrls.dram.perBankRdBursts::5        93010                       # Per bank write bursts
system.mem_ctrls.dram.perBankRdBursts::6        93062                       # Per bank write bursts
system.mem_ctrls.dram.perBankRdBursts::7        93077                       # Per bank write bursts
system.mem_ctrls.dram.perBankRdBursts::8        93154                       # Per bank write bursts
system.mem_ctrls.dram.perBankRdBursts::9        93077                       # Per bank write bursts
system.mem_ctrls.dram.perBankRdBursts::10        92956                       # Per bank write bursts
system.mem_ctrls.dram.perBankRdBursts::11        92950                       # Per bank write bursts
system.mem_ctrls.dram.perBankRdBursts::12        92997                       # Per bank write bursts
system.mem_ctrls.dram.perBankRdBursts::13        92953                       # Per bank write bursts
system.mem_ctrls.dram.perBankRdBursts::14        92960                       # Per bank write bursts
system.mem_ctrls.dram.perBankRdBursts::15        92971                       # Per bank write bursts
system.mem_ctrls.dram.perBankWrBursts::0        92420                       # Per bank write bursts
system.mem_ctrls.dram.perBankWrBursts::1        92456                       # Per bank write bursts
system.mem_ctrls.dram.perBankWrBursts::2        92442                       # Per bank write bursts
system.mem_ctrls.dram.perBankWrBursts::3        92431                       # Per bank write bursts
system.mem_ctrls.dram.perBankWrBursts::4        92423                       # Per bank write bursts
system.mem_ctrls.dram.perBankWrBursts::5        92481                       # Per bank write bursts
system.mem_ctrls.dram.perBankWrBursts::6        92544                       # Per bank write bursts
system.mem_ctrls.dram.perBankWrBursts::7        92544                       # Per bank write bursts
system.mem_ctrls.dram.perBankWrBursts::8        92544                       # Per bank write bursts
system.mem_ctrls.dram.perBankWrBursts::9        92517                       # Per bank write bursts
system.mem_ctrls.dram.perBankWrBursts::10        92416                       # Per bank write bursts
system.mem_ctrls.dram.perBankWrBursts::11        92416                       # Per bank write bursts
system.mem_ctrls.dram.perBankWrBursts::12        92416                       # Per bank write bursts
system.mem_ctrls.dram.perBankWrBursts::13        92416                       # Per bank write bursts
system.mem_ctrls.dram.perBankWrBursts::14        92416                       # Per bank write bursts
system.mem_ctrls.dram.perBankWrBursts::15        92416                       # Per bank write bursts
system.mem_ctrls.dram.totQLat             17452506250                       # Total ticks spent queuing
system.mem_ctrls.dram.totBusLat            7440565000                       # Total ticks spent in databus transfers
system.mem_ctrls.dram.totMemAccLat        45354625000                       # Total ticks spent from burst creation until serviced by the DRAM
system.mem_ctrls.dram.avgQLat                11727.94                       # Average queueing delay per DRAM burst
system.mem_ctrls.dram.avgBusLat               5000.00                       # Average bus latency per DRAM burst
system.mem_ctrls.dram.avgMemAccLat           30477.94                       # Average memory access latency per DRAM burst
system.mem_ctrls.dram.readRowHits             1313438                       # Number of row buffer hits during reads
system.mem_ctrls.dram.writeRowHits            1313336                       # Number of row buffer hits during writes
system.mem_ctrls.dram.readRowHitRate            88.26                       # Row buffer hit rate for reads
system.mem_ctrls.dram.writeRowHitRate           88.78                       # Row buffer hit rate for writes
system.mem_ctrls.dram.bytesPerActivate::samples       340635                       # Bytes accessed per row activation
system.mem_ctrls.dram.bytesPerActivate::mean   557.529461                       # Bytes accessed per row activation
system.mem_ctrls.dram.bytesPerActivate::gmean   368.723640                       # Bytes accessed per row activation
system.mem_ctrls.dram.bytesPerActivate::stdev   410.938686                       # Bytes accessed per row activation
system.mem_ctrls.dram.bytesPerActivate::0-127        17286      5.07%      5.07% # Bytes accessed per row activation
system.mem_ctrls.dram.bytesPerActivate::128-255       123555     36.27%     41.35% # Bytes accessed per row activation
system.mem_ctrls.dram.bytesPerActivate::256-383        13406      3.94%     45.28% # Bytes accessed per row activation
system.mem_ctrls.dram.bytesPerActivate::384-511        12854      3.77%     49.06% # Bytes accessed per row activation
system.mem_ctrls.dram.bytesPerActivate::512-639        13645      4.01%     53.06% # Bytes accessed per row activation
system.mem_ctrls.dram.bytesPerActivate::640-767        11964      3.51%     56.57% # Bytes accessed per row activation
system.mem_ctrls.dram.bytesPerActivate::768-895        10526      3.09%     59.66% # Bytes accessed per row activation
system.mem_ctrls.dram.bytesPerActivate::896-1023        12772      3.75%     63.41% # Bytes accessed per row activation
system.mem_ctrls.dram.bytesPerActivate::1024-1151       124627     36.59%    100.00% # Bytes accessed per row activation
system.mem_ctrls.dram.bytesPerActivate::total       340635                       # Bytes accessed per row activation
system.mem_ctrls.dram.bytesRead              95239232                       # Total number of bytes read from DRAM
system.mem_ctrls.dram.bytesWritten           94675072                       # Total number of bytes written to DRAM
system.mem_ctrls.dram.avgRdBW              352.274599                       # Average DRAM read bandwidth in MiBytes/s
system.mem_ctrls.dram.avgWrBW              350.187862                       # Average DRAM write bandwidth in MiBytes/s
system.mem_ctrls.dram.peakBW                 12800.00                       # Theoretical peak bandwidth in MiByte/s
system.mem_ctrls.dram.busUtil                    5.49                       # Data bus utilization in percentage
system.mem_ctrls.dram.busUtilRead                2.75                       # Data bus utilization in percentage for reads
system.mem_ctrls.dram.busUtilWrite               2.74                       # Data bus utilization in percentage for writes
system.mem_ctrls.dram.pageHitRate               88.52                       # Row buffer hit rate, read and write combined
system.mem_ctrls.dram.power_state.pwrStateResidencyTicks::UNDEFINED 270355093000                       # Cumulative time (in ticks) in various power states
system.mem_ctrls.dram.rank0.actEnergy      1218041160                       # Energy for activate commands per rank (pJ)
system.mem_ctrls.dram.rank0.preEnergy       647404230                       # Energy for precharge commands per rank (pJ)
system.mem_ctrls.dram.rank0.readEnergy     5312838300                       # Energy for read commands per rank (pJ)
system.mem_ctrls.dram.rank0.writeEnergy    3861448020                       # Energy for write commands per rank (pJ)
system.mem_ctrls.dram.rank0.refreshEnergy 21341530080.000004                       # Energy for refresh commands per rank (pJ)
system.mem_ctrls.dram.rank0.actBackEnergy  63221588190                       # Energy for active background per rank (pJ)
system.mem_ctrls.dram.rank0.preBackEnergy  50577123840                       # Energy for precharge background per rank (pJ)
system.mem_ctrls.dram.rank0.actPowerDownEnergy            0                       # Energy for active power-down per rank (pJ)
system.mem_ctrls.dram.rank0.prePowerDownEnergy            0                       # Energy for precharge power-down per rank (pJ)
system.mem_ctrls.dram.rank0.selfRefreshEnergy            0                       # Energy for self refresh per rank (pJ)
system.mem_ctrls.dram.rank0.totalEnergy  146179973820                       # Total energy per rank (pJ)
system.mem_ctrls.dram.rank0.averagePower   540.696209                       # Core power per rank (mW)
system.mem_ctrls.dram.rank0.totalIdleTime            0                       # Total Idle time Per DRAM Rank
system.mem_ctrls.dram.rank0.pwrStateTime::IDLE 129476662750                       # Time in different power states
system.mem_ctrls.dram.rank0.pwrStateTime::REF   9027720000                       # Time in different power states
system.mem_ctrls.dram.rank0.pwrStateTime::SREF            0                       # Time in different power states
system.mem_ctrls.dram.rank0.pwrStateTime::PRE_PDN            0                       # Time in different power states
system.mem_ctrls.dram.rank0.pwrStateTime::ACT 131850710250                       # Time in different power states
system.mem_ctrls.dram.rank0.pwrStateTime::ACT_PDN            0                       # Time in different power states
system.mem_ctrls.dram.rank1.actEnergy      1214107020                       # Energy for activate commands per rank (pJ)
system.mem_ctrls.dram.rank1.preEnergy       645305595                       # Energy for precharge commands per rank (pJ)
system.mem_ctrls.dram.rank1.readEnergy     5312288520                       # Energy for read commands per rank (pJ)
system.mem_ctrls.dram.rank1.writeEnergy    3860487540                       # Energy for write commands per rank (pJ)
system.mem_ctrls.dram.rank1.refreshEnergy 21341530080.000004                       # Energy for refresh commands per rank (pJ)
system.mem_ctrls.dram.rank1.actBackEnergy  62979721800                       # Energy for active background per rank (pJ)
system.mem_ctrls.dram.rank1.preBackEnergy  50780800800                       # Energy for precharge background per rank (pJ)
system.mem_ctrls.dram.rank1.actPowerDownEnergy            0                       # Energy for active power-down per rank (pJ)
system.mem_ctrls.dram.rank1.prePowerDownEnergy            0                       # Energy for precharge power-down per rank (pJ)
system.mem_ctrls.dram.rank1.selfRefreshEnergy            0                       # Energy for self refresh per rank (pJ)
system.mem_ctrls.dram.rank1.totalEnergy  146134241355                       # Total energy per rank (pJ)
system.mem_ctrls.dram.rank1.averagePower   540.527052                       # Core power per rank (mW)
system.mem_ctrls.dram.rank1.totalIdleTime            0                       # Total Idle time Per DRAM Rank
system.mem_ctrls.dram.rank1.pwrStateTime::IDLE 129989935000                       # Time in different power states
system.mem_ctrls.dram.rank1.pwrStateTime::REF   9027720000                       # Time in different power states
system.mem_ctrls.dram.rank1.pwrStateTime::SREF            0                       # Time in different power states
system.mem_ctrls.dram.rank1.pwrStateTime::PRE_PDN            0                       # Time in different power states
system.mem_ctrls.dram.rank1.pwrStateTime::ACT 131337438000                       # Time in different power states
system.mem_ctrls.dram.rank1.pwrStateTime::ACT_PDN            0                       # Time in different power states
system.mem_ctrls.power_state.pwrStateResidencyTicks::UNDEFINED 270355093000                       # Cumulative time (in ticks) in various power states
system.membus.trans_dist::ReadResp                613                       # Transaction distribution
system.membus.trans_dist::WritebackDirty      1479326                       # Transaction distribution
system.membus.trans_dist::CleanEvict              194                       # Transaction distribution
system.membus.trans_dist::ReadExReq           1487500                       # Transaction distribution
system.membus.trans_dist::ReadExResp          1487500                       # Transaction distribution
system.membus.trans_dist::ReadSharedReq           613                       # Transaction distribution
system.membus.pkt_count_system.l2.mem_side_port::system.mem_ctrls.port      4455746                       # Packet count per connected requestor and responder (bytes)
system.membus.pkt_count::total                4455746                       # Packet count per connected requestor and responder (bytes)
system.membus.pkt_size_system.l2.mem_side_port::system.mem_ctrls.port    189916096                       # Cumulative packet size per connected requestor and responder (bytes)
system.membus.pkt_size::total               189916096                       # Cumulative packet size per connected requestor and responder (bytes)
system.membus.snoops                                0                       # Total snoops (count)
system.membus.snoopTraffic                          0                       # Total snoop traffic (bytes)
system.membus.snoop_fanout::samples           1488113                       # Request fanout histogram
system.membus.snoop_fanout::mean                    0                       # Request fanout histogram
system.membus.snoop_fanout::stdev                   0                       # Request fanout histogram
system.membus.snoop_fanout::underflows              0      0.00%      0.00% # Request fanout histogram
system.membus.snoop_fanout::0                 1488113    100.00%    100.00% # Request fanout histogram
system.membus.snoop_fanout::1                       0      0.00%    100.00% # Request fanout histogram
system.membus.snoop_fanout::overflows               0      0.00%    100.00% # Request fanout histogram
system.membus.snoop_fanout::min_value               0                       # Request fanout histogram
system.membus.snoop_fanout::max_value               0                       # Request fanout histogram
system.membus.snoop_fanout::total             1488113                       # Request fanout histogram
system.membus.power_state.pwrStateResidencyTicks::UNDEFINED 270355093000                       # Cumulative time (in ticks) in various power states
system.membus.reqLayer0.occupancy          8884937000                       # Layer occupancy (ticks)
system.membus.reqLayer0.utilization               3.3                       # Layer utilization (%)
system.membus.respLayer1.occupancy         7833730500                       # Layer occupancy (ticks)
system.membus.respLayer1.utilization              2.9                       # Layer utilization (%)
system.tol2bus.trans_dist::ReadResp             93878                       # Transaction distribution
system.tol2bus.trans_dist::WritebackDirty      3083027                       # Transaction distribution
system.tol2bus.trans_dist::WritebackClean          214                       # Transaction distribution
system.tol2bus.trans_dist::CleanEvict           47265                       # Transaction distribution
system.tol2bus.trans_dist::ReadExReq          1557237                       # Transaction distribution
system.tol2bus.trans_dist::ReadExResp         1557237                       # Transaction distribution
system.tol2bus.trans_dist::ReadCleanReq           616                       # Transaction distribution
system.tol2bus.trans_dist::ReadSharedReq        93262                       # Transaction distribution
system.tol2bus.pkt_count_system.cpu.icache.mem_side_port::system.l2.cpu_side_port         1446                       # Packet count per connected requestor and responder (bytes)
system.tol2bus.pkt_count_system.cpu.dcache.mem_side_port::system.l2.cpu_side_port      4951369                       # Packet count per connected requestor and responder (bytes)
system.tol2bus.pkt_count::total               4952815                       # Packet count per connected requestor and responder (bytes)
system.tol2bus.pkt_size_system.cpu.icache.mem_side_port::system.l2.cpu_side_port        53120                       # Cumulative packet size per connected requestor and responder (bytes)
system.tol2bus.pkt_size_system.cpu.dcache.mem_side_port::system.l2.cpu_side_port    208268800                       # Cumulative packet size per connected requestor and responder (bytes)
system.tol2bus.pkt_size::total              208321920                       # Cumulative packet size per connected requestor and responder (bytes)
system.tol2bus.snoops                         1479921                       # Total snoops (count)
system.tol2bus.snoopTraffic                  94676864                       # Total snoop traffic (bytes)
system.tol2bus.snoop_fanout::samples          3131036                       # Request fanout histogram
system.tol2bus.snoop_fanout::mean            0.014985                       # Request fanout histogram
system.tol2bus.snoop_fanout::stdev           0.121493                       # Request fanout histogram
system.tol2bus.snoop_fanout::underflows             0      0.00%      0.00% # Request fanout histogram
system.tol2bus.snoop_fanout::0                3084117     98.50%     98.50% # Request fanout histogram
system.tol2bus.snoop_fanout::1                  46919      1.50%    100.00% # Request fanout histogram
system.tol2bus.snoop_fanout::2                      0      0.00%    100.00% # Request fanout histogram
system.tol2bus.snoop_fanout::overflows              0      0.00%    100.00% # Request fanout histogram
system.tol2bus.snoop_fanout::min_value              0                       # Request fanout histogram
system.tol2bus.snoop_fanout::max_value              1                       # Request fanout histogram
system.tol2bus.snoop_fanout::total            3131036                       # Request fanout histogram
system.tol2bus.power_state.pwrStateResidencyTicks::UNDEFINED 270355093000                       # Cumulative time (in ticks) in various power states
system.tol2bus.reqLayer0.occupancy         6509530000                       # Layer occupancy (ticks)
system.tol2bus.reqLayer0.utilization              2.4                       # Layer utilization (%)
system.tol2bus.respLayer0.occupancy           1850997                       # Layer occupancy (ticks)
system.tol2bus.respLayer0.utilization             0.0                       # Layer utilization (%)
system.tol2bus.respLayer1.occupancy        4951499997                       # Layer occupancy (ticks)
system.tol2bus.respLayer1.utilization             1.8                       # Layer utilization (%)
system.voltage_domain.voltage                       1                       # Voltage in Volts

---------- End Simulation Statistics   ----------
