
---------- Begin Simulation Statistics ----------
final_tick                                   63958000                       # Number of ticks from beginning of simulation (restored from checkpoints and never reset)
host_inst_rate                                 140626                       # Simulator instruction rate (inst/s)
host_mem_usage                                 656632                       # Number of bytes of host memory used
host_op_rate                                   161720                       # Simulator op (including micro ops) rate (op/s)
host_seconds                                     0.08                       # Real time elapsed on the host
host_tick_rate                              777102586                       # Simulator tick rate (ticks/s)
sim_freq                                 1000000000000                       # Frequency of simulated ticks
sim_insts                                       11558                       # Number of instructions simulated
sim_ops                                         13307                       # Number of ops (including micro ops) simulated
sim_seconds                                  0.000064                       # Number of seconds simulated
sim_ticks                                    63958000                       # Number of ticks simulated
system.cpu.committedInsts                       11558                       # Number of instructions committed
system.cpu.committedOps                         13307                       # Number of ops (including micro ops) committed
system.cpu.cpi                               5.533656                       # CPI: cycles per instruction
system.cpu.discardedOps                          2010                       # Number of ops (including micro ops) which were discarded before commit
system.cpu.idleCycles                           43049                       # Total number of cycles that the object has spent stopped
system.cpu.ipc                               0.180712                       # IPC: instructions per cycle
system.cpu.numCycles                            63958                       # number of cpu cycles simulated
system.cpu.numFetchSuspends                         0                       # Number of times Execute suspended instruction fetching
system.cpu.numWorkItemsCompleted                    0                       # number of work items this cpu completed
system.cpu.numWorkItemsStarted                      0                       # number of work items this cpu started
system.cpu.op_class_0::No_OpClass                   0      0.00%      0.00% # Class of committed instruction
system.cpu.op_class_0::IntAlu                    9319     70.03%     70.03% # Class of committed instruction
system.cpu.op_class_0::IntMult                     53      0.40%     70.43% # Class of committed instruction
system.cpu.op_class_0::IntDiv                       0      0.00%     70.43% # Class of committed instruction
system.cpu.op_class_0::FloatAdd                     0      0.00%     70.43% # Class of committed instruction
system.cpu.op_class_0::FloatCmp                     0      0.00%     70.43% # Class of committed instruction
system.cpu.op_class_0::FloatCvt                     0      0.00%     70.43% # Class of committed instruction
system.cpu.op_class_0::FloatMult                    0      0.00%     70.43% # Class of committed instruction
system.cpu.op_class_0::FloatMultAcc                 0      0.00%     70.43% # Class of committed instruction
system.cpu.op_class_0::FloatDiv                     0      0.00%     70.43% # Class of committed instruction
system.cpu.op_class_0::FloatMisc                    0      0.00%     70.43% # Class of committed instruction
system.cpu.op_class_0::FloatSqrt                    0      0.00%     70.43% # Class of committed instruction
system.cpu.op_class_0::SimdAdd                      0      0.00%     70.43% # Class of committed instruction
system.cpu.op_class_0::SimdAddAcc                   0      0.00%     70.43% # Class of committed instruction
system.cpu.op_class_0::SimdAlu                      0      0.00%     70.43% # Class of committed instruction
system.cpu.op_class_0::SimdCmp                      0      0.00%     70.43% # Class of committed instruction
system.cpu.op_class_0::SimdCvt                      0      0.00%     70.43% # Class of committed instruction
system.cpu.op_class_0::SimdMisc                     0      0.00%     70.43% # Class of committed instruction
system.cpu.op_class_0::SimdMult                     0      0.00%     70.43% # Class of committed instruction
system.cpu.op_class_0::SimdMultAcc                  0      0.00%     70.43% # Class of committed instruction
system.cpu.op_class_0::SimdShift                    0      0.00%     70.43% # Class of committed instruction
system.cpu.op_class_0::SimdShiftAcc                 0      0.00%     70.43% # Class of committed instruction
system.cpu.op_class_0::SimdDiv                      0      0.00%     70.43% # Class of committed instruction
system.cpu.op_class_0::SimdSqrt                     0      0.00%     70.43% # Class of committed instruction
system.cpu.op_class_0::SimdFloatAdd                 0      0.00%     70.43% # Class of committed instruction
system.cpu.op_class_0::SimdFloatAlu                 0      0.00%     70.43% # Class of committed instruction
system.cpu.op_class_0::SimdFloatCmp                 0      0.00%     70.43% # Class of committed instruction
system.cpu.op_class_0::SimdFloatCvt                 0      0.00%     70.43% # Class of committed instruction
system.cpu.op_class_0::SimdFloatDiv                 0      0.00%     70.43% # Class of committed instruction
system.cpu.op_class_0::SimdFloatMisc               21      0.16%     70.59% # Class of committed instruction
system.cpu.op_class_0::SimdFloatMult                0      0.00%     70.59% # Class of committed instruction
system.cpu.op_class_0::SimdFloatMultAcc             0      0.00%     70.59% # Class of committed instruction
system.cpu.op_class_0::SimdFloatSqrt                0      0.00%     70.59% # Class of committed instruction
system.cpu.op_class_0::SimdReduceAdd                0      0.00%     70.59% # Class of committed instruction
system.cpu.op_class_0::SimdReduceAlu                0      0.00%     70.59% # Class of committed instruction
system.cpu.op_class_0::SimdReduceCmp                0      0.00%     70.59% # Class of committed instruction
system.cpu.op_class_0::SimdFloatReduceAdd            0      0.00%     70.59% # Class of committed instruction
system.cpu.op_class_0::SimdFloatReduceCmp            0      0.00%     70.59% # Class of committed instruction
system.cpu.op_class_0::SimdAes                      0      0.00%     70.59% # Class of committed instruction
system.cpu.op_class_0::SimdAesMix                   0      0.00%     70.59% # Class of committed instruction
system.cpu.op_class_0::SimdSha1Hash                 0      0.00%     70.59% # Class of committed instruction
system.cpu.op_class_0::SimdSha1Hash2                0      0.00%     70.59% # Class of committed instruction
system.cpu.op_class_0::SimdSha256Hash               0      0.00%     70.59% # Class of committed instruction
system.cpu.op_class_0::SimdSha256Hash2              0      0.00%     70.59% # Class of committed instruction
system.cpu.op_class_0::SimdShaSigma2                0      0.00%     70.59% # Class of committed instruction
system.cpu.op_class_0::SimdShaSigma3                0      0.00%     70.59% # Class of committed instruction
system.cpu.op_class_0::SimdPredAlu                  0      0.00%     70.59% # Class of committed instruction
system.cpu.op_class_0::MemRead                   2014     15.13%     85.72% # Class of committed instruction
system.cpu.op_class_0::MemWrite                  1900     14.28%    100.00% # Class of committed instruction
system.cpu.op_class_0::FloatMemRead                 0      0.00%    100.00% # Class of committed instruction
system.cpu.op_class_0::FloatMemWrite                0      0.00%    100.00% # Class of committed instruction
system.cpu.op_class_0::IprAccess                    0      0.00%    100.00% # Class of committed instruction
system.cpu.op_class_0::InstPrefetch                 0      0.00%    100.00% # Class of committed instruction
system.cpu.op_class_0::total                    13307                       # Class of committed instruction
system.cpu.tickCycles                           20909                       # Number of cycles that the object actually ticked
system.cpu.workload.numSyscalls                    12                       # Number of system calls
system.membus.snoop_filter.hit_multi_requests            0                       # Number of requests hitting in the snoop filter with multiple (>1) holders of the requested data.
system.membus.snoop_filter.hit_multi_snoops            0                       # Number of snoops hitting in the snoop filter with multiple (>1) holders of the requested data.
system.membus.snoop_filter.hit_single_requests            0                       # Number of requests hitting in the snoop filter with a single holder of the requested data.
system.membus.snoop_filter.hit_single_snoops            0                       # Number of snoops hitting in the snoop filter with a single holder of the requested data.
system.membus.snoop_filter.tot_requests           559                       # Total number of requests made to the snoop filter.
system.membus.snoop_filter.tot_snoops               0                       # Total number of snoops made to the snoop filter.
system.tol2bus.snoop_filter.hit_multi_requests           10                       # Number of requests hitting in the snoop filter with multiple (>1) holders of the requested data.
system.tol2bus.snoop_filter.hit_multi_snoops            0                       # Number of snoops hitting in the snoop filter with multiple (>1) holders of the requested data.
system.tol2bus.snoop_filter.hit_single_requests          124                       # Number of requests hitting in the snoop filter with a single holder of the requested data.
system.tol2bus.snoop_filter.hit_single_snoops            0                       # Number of snoops hitting in the snoop filter with a single holder of the requested data.
system.tol2bus.snoop_filter.tot_requests          713                       # Total number of requests made to the snoop filter.
system.tol2bus.snoop_filter.tot_snoops              0                       # Total number of snoops made to the snoop filter.
system.clk_domain.clock                          1000                       # Clock period in ticks
system.cpu.branchPred.lookups                    4004                       # Number of BP lookups
system.cpu.branchPred.condPredicted              2745                       # Number of conditional branches predicted
system.cpu.branchPred.condIncorrect               591                       # Number of conditional branches incorrect
system.cpu.branchPred.BTBLookups                 1804                       # Number of BTB lookups
system.cpu.branchPred.BTBHits                     853                       # Number of BTB hits
system.cpu.branchPred.BTBHitPct             47.283814                       # BTB Hit Percentage
system.cpu.branchPred.RASUsed                     319                       # Number of times the RAS was used to get a target.
system.cpu.branchPred.RASIncorrect                  2                       # Number of incorrect RAS predictions.
system.cpu.branchPred.indirectLookups             198                       # Number of indirect predictor lookups.
system.cpu.branchPred.indirectHits                 62                       # Number of indirect target hits.
system.cpu.branchPred.indirectMisses              136                       # Number of indirect misses.
system.cpu.branchPred.indirectMispredicted           67                       # Number of mispredicted indirect branches.
system.cpu.dcache.demand_hits::.cpu.data         3854                       # number of demand (read+write) hits
system.cpu.dcache.demand_hits::total             3854                       # number of demand (read+write) hits
system.cpu.dcache.overall_hits::.cpu.data         3877                       # number of overall hits
system.cpu.dcache.overall_hits::total            3877                       # number of overall hits
system.cpu.dcache.demand_misses::.cpu.data          237                       # number of demand (read+write) misses
system.cpu.dcache.demand_misses::total            237                       # number of demand (read+write) misses
system.cpu.dcache.overall_misses::.cpu.data          248                       # number of overall misses
system.cpu.dcache.overall_misses::total           248                       # number of overall misses
system.cpu.dcache.demand_miss_latency::.cpu.data     23085000                       # number of demand (read+write) miss cycles
system.cpu.dcache.demand_miss_latency::total     23085000                       # number of demand (read+write) miss cycles
system.cpu.dcache.overall_miss_latency::.cpu.data     23085000                       # number of overall miss cycles
system.cpu.dcache.overall_miss_latency::total     23085000                       # number of overall miss cycles
system.cpu.dcache.demand_accesses::.cpu.data         4091                       # number of demand (read+write) accesses
system.cpu.dcache.demand_accesses::total         4091                       # number of demand (read+write) accesses
system.cpu.dcache.overall_accesses::.cpu.data         4125                       # number of overall (read+write) accesses
system.cpu.dcache.overall_accesses::total         4125                       # number of overall (read+write) accesses
system.cpu.dcache.demand_miss_rate::.cpu.data     0.057932                       # miss rate for demand accesses
system.cpu.dcache.demand_miss_rate::total     0.057932                       # miss rate for demand accesses
system.cpu.dcache.overall_miss_rate::.cpu.data     0.060121                       # miss rate for overall accesses
system.cpu.dcache.overall_miss_rate::total     0.060121                       # miss rate for overall accesses
system.cpu.dcache.demand_avg_miss_latency::.cpu.data 97405.063291                       # average overall miss latency
system.cpu.dcache.demand_avg_miss_latency::total 97405.063291                       # average overall miss latency
system.cpu.dcache.overall_avg_miss_latency::.cpu.data 93084.677419                       # average overall miss latency
system.cpu.dcache.overall_avg_miss_latency::total 93084.677419                       # average overall miss latency
system.cpu.dcache.blocked_cycles::no_mshrs            0                       # number of cycles access was blocked
system.cpu.dcache.blocked_cycles::no_targets            0                       # number of cycles access was blocked
system.cpu.dcache.blocked::no_mshrs                 0                       # number of cycles access was blocked
system.cpu.dcache.blocked::no_targets               0                       # number of cycles access was blocked
system.cpu.dcache.avg_blocked_cycles::no_mshrs          nan                       # average number of cycles each access was blocked
system.cpu.dcache.avg_blocked_cycles::no_targets          nan                       # average number of cycles each access was blocked
system.cpu.dcache.demand_mshr_hits::.cpu.data           55                       # number of demand (read+write) MSHR hits
system.cpu.dcache.demand_mshr_hits::total           55                       # number of demand (read+write) MSHR hits
system.cpu.dcache.overall_mshr_hits::.cpu.data           55                       # number of overall MSHR hits
system.cpu.dcache.overall_mshr_hits::total           55                       # number of overall MSHR hits
system.cpu.dcache.demand_mshr_misses::.cpu.data          182                       # number of demand (read+write) MSHR misses
system.cpu.dcache.demand_mshr_misses::total          182                       # number of demand (read+write) MSHR misses
system.cpu.dcache.overall_mshr_misses::.cpu.data          190                       # number of overall MSHR misses
system.cpu.dcache.overall_mshr_misses::total          190                       # number of overall MSHR misses
system.cpu.dcache.demand_mshr_miss_latency::.cpu.data     17435000                       # number of demand (read+write) MSHR miss cycles
system.cpu.dcache.demand_mshr_miss_latency::total     17435000                       # number of demand (read+write) MSHR miss cycles
system.cpu.dcache.overall_mshr_miss_latency::.cpu.data     18431000                       # number of overall MSHR miss cycles
system.cpu.dcache.overall_mshr_miss_latency::total     18431000                       # number of overall MSHR miss cycles
system.cpu.dcache.demand_mshr_miss_rate::.cpu.data     0.044488                       # mshr miss rate for demand accesses
system.cpu.dcache.demand_mshr_miss_rate::total     0.044488                       # mshr miss rate for demand accesses
system.cpu.dcache.overall_mshr_miss_rate::.cpu.data     0.046061                       # mshr miss rate for overall accesses
system.cpu.dcache.overall_mshr_miss_rate::total     0.046061                       # mshr miss rate for overall accesses
system.cpu.dcache.demand_avg_mshr_miss_latency::.cpu.data 95796.703297                       # average overall mshr miss latency
system.cpu.dcache.demand_avg_mshr_miss_latency::total 95796.703297                       # average overall mshr miss latency
system.cpu.dcache.overall_avg_mshr_miss_latency::.cpu.data 97005.263158                       # average overall mshr miss latency
system.cpu.dcache.overall_avg_mshr_miss_latency::total 97005.263158                       # average overall mshr miss latency
system.cpu.dcache.replacements                      1                       # number of replacements
system.cpu.dcache.ReadReq_hits::.cpu.data         2132                       # number of ReadReq hits
system.cpu.dcache.ReadReq_hits::total            2132                       # number of ReadReq hits
system.cpu.dcache.ReadReq_misses::.cpu.data          117                       # number of ReadReq misses
system.cpu.dcache.ReadReq_misses::total           117                       # number of ReadReq misses
system.cpu.dcache.ReadReq_miss_latency::.cpu.data     10879000                       # number of ReadReq miss cycles
system.cpu.dcache.ReadReq_miss_latency::total     10879000                       # number of ReadReq miss cycles
system.cpu.dcache.ReadReq_accesses::.cpu.data         2249                       # number of ReadReq accesses(hits+misses)
system.cpu.dcache.ReadReq_accesses::total         2249                       # number of ReadReq accesses(hits+misses)
system.cpu.dcache.ReadReq_miss_rate::.cpu.data     0.052023                       # miss rate for ReadReq accesses
system.cpu.dcache.ReadReq_miss_rate::total     0.052023                       # miss rate for ReadReq accesses
system.cpu.dcache.ReadReq_avg_miss_latency::.cpu.data 92982.905983                       # average ReadReq miss latency
system.cpu.dcache.ReadReq_avg_miss_latency::total 92982.905983                       # average ReadReq miss latency
system.cpu.dcache.ReadReq_mshr_hits::.cpu.data            6                       # number of ReadReq MSHR hits
system.cpu.dcache.ReadReq_mshr_hits::total            6                       # number of ReadReq MSHR hits
system.cpu.dcache.ReadReq_mshr_misses::.cpu.data          111                       # number of ReadReq MSHR misses
system.cpu.dcache.ReadReq_mshr_misses::total          111                       # number of ReadReq MSHR misses
system.cpu.dcache.ReadReq_mshr_miss_latency::.cpu.data     10167000                       # number of ReadReq MSHR miss cycles
system.cpu.dcache.ReadReq_mshr_miss_latency::total     10167000                       # number of ReadReq MSHR miss cycles
system.cpu.dcache.ReadReq_mshr_miss_rate::.cpu.data     0.049355                       # mshr miss rate for ReadReq accesses
system.cpu.dcache.ReadReq_mshr_miss_rate::total     0.049355                       # mshr miss rate for ReadReq accesses
system.cpu.dcache.ReadReq_avg_mshr_miss_latency::.cpu.data 91594.594595                       # average ReadReq mshr miss latency
system.cpu.dcache.ReadReq_avg_mshr_miss_latency::total 91594.594595                       # average ReadReq mshr miss latency
system.cpu.dcache.WriteReq_hits::.cpu.data         1722                       # number of WriteReq hits
system.cpu.dcache.WriteReq_hits::total           1722                       # number of WriteReq hits
system.cpu.dcache.WriteReq_misses::.cpu.data          120                       # number of WriteReq misses
system.cpu.dcache.WriteReq_misses::total          120                       # number of WriteReq misses
system.cpu.dcache.WriteReq_miss_latency::.cpu.data     12206000                       # number of WriteReq miss cycles
system.cpu.dcache.WriteReq_miss_latency::total     12206000                       # number of WriteReq miss cycles
system.cpu.dcache.WriteReq_accesses::.cpu.data         1842                       # number of WriteReq accesses(hits+misses)
system.cpu.dcache.WriteReq_accesses::total         1842                       # number of WriteReq accesses(hits+misses)
system.cpu.dcache.WriteReq_miss_rate::.cpu.data     0.065147                       # miss rate for WriteReq accesses
system.cpu.dcache.WriteReq_miss_rate::total     0.065147                       # miss rate for WriteReq accesses
system.cpu.dcache.WriteReq_avg_miss_latency::.cpu.data 101716.666667                       # average WriteReq miss latency
system.cpu.dcache.WriteReq_avg_miss_latency::total 101716.666667                       # average WriteReq miss latency
system.cpu.dcache.WriteReq_mshr_hits::.cpu.data           49                       # number of WriteReq MSHR hits
system.cpu.dcache.WriteReq_mshr_hits::total           49                       # number of WriteReq MSHR hits
system.cpu.dcache.WriteReq_mshr_misses::.cpu.data           71                       # number of WriteReq MSHR misses
system.cpu.dcache.WriteReq_mshr_misses::total           71                       # number of WriteReq MSHR misses
system.cpu.dcache.WriteReq_mshr_miss_latency::.cpu.data      7268000                       # number of WriteReq MSHR miss cycles
system.cpu.dcache.WriteReq_mshr_miss_latency::total      7268000                       # number of WriteReq MSHR miss cycles
system.cpu.dcache.WriteReq_mshr_miss_rate::.cpu.data     0.038545                       # mshr miss rate for WriteReq accesses
system.cpu.dcache.WriteReq_mshr_miss_rate::total     0.038545                       # mshr miss rate for WriteReq accesses
system.cpu.dcache.WriteReq_avg_mshr_miss_latency::.cpu.data 102366.197183                       # average WriteReq mshr miss latency
system.cpu.dcache.WriteReq_avg_mshr_miss_latency::total 102366.197183                       # average WriteReq mshr miss latency
system.cpu.dcache.SoftPFReq_hits::.cpu.data           23                       # number of SoftPFReq hits
system.cpu.dcache.SoftPFReq_hits::total            23                       # number of SoftPFReq hits
system.cpu.dcache.SoftPFReq_misses::.cpu.data           11                       # number of SoftPFReq misses
system.cpu.dcache.SoftPFReq_misses::total           11                       # number of SoftPFReq misses
system.cpu.dcache.SoftPFReq_accesses::.cpu.data           34                       # number of SoftPFReq accesses(hits+misses)
system.cpu.dcache.SoftPFReq_accesses::total           34                       # number of SoftPFReq accesses(hits+misses)
system.cpu.dcache.SoftPFReq_miss_rate::.cpu.data     0.323529                       # miss rate for SoftPFReq accesses
system.cpu.dcache.SoftPFReq_miss_rate::total     0.323529                       # miss rate for SoftPFReq accesses
system.cpu.dcache.SoftPFReq_mshr_misses::.cpu.data            8                       # number of SoftPFReq MSHR misses
system.cpu.dcache.SoftPFReq_mshr_misses::total            8                       # number of SoftPFReq MSHR misses
system.cpu.dcache.SoftPFReq_mshr_miss_latency::.cpu.data       996000                       # number of SoftPFReq MSHR miss cycles
system.cpu.dcache.SoftPFReq_mshr_miss_latency::total       996000                       # number of SoftPFReq MSHR miss cycles
system.cpu.dcache.SoftPFReq_mshr_miss_rate::.cpu.data     0.235294                       # mshr miss rate for SoftPFReq accesses
system.cpu.dcache.SoftPFReq_mshr_miss_rate::total     0.235294                       # mshr miss rate for SoftPFReq accesses
system.cpu.dcache.SoftPFReq_avg_mshr_miss_latency::.cpu.data       124500                       # average SoftPFReq mshr miss latency
system.cpu.dcache.SoftPFReq_avg_mshr_miss_latency::total       124500                       # average SoftPFReq mshr miss latency
system.cpu.dcache.LoadLockedReq_hits::.cpu.data           17                       # number of LoadLockedReq hits
system.cpu.dcache.LoadLockedReq_hits::total           17                       # number of LoadLockedReq hits
system.cpu.dcache.LoadLockedReq_misses::.cpu.data            1                       # number of LoadLockedReq misses
system.cpu.dcache.LoadLockedReq_misses::total            1                       # number of LoadLockedReq misses
system.cpu.dcache.LoadLockedReq_miss_latency::.cpu.data        98000                       # number of LoadLockedReq miss cycles
system.cpu.dcache.LoadLockedReq_miss_latency::total        98000                       # number of LoadLockedReq miss cycles
system.cpu.dcache.LoadLockedReq_accesses::.cpu.data           18                       # number of LoadLockedReq accesses(hits+misses)
system.cpu.dcache.LoadLockedReq_accesses::total           18                       # number of LoadLockedReq accesses(hits+misses)
system.cpu.dcache.LoadLockedReq_miss_rate::.cpu.data     0.055556                       # miss rate for LoadLockedReq accesses
system.cpu.dcache.LoadLockedReq_miss_rate::total     0.055556                       # miss rate for LoadLockedReq accesses
system.cpu.dcache.LoadLockedReq_avg_miss_latency::.cpu.data        98000                       # average LoadLockedReq miss latency
system.cpu.dcache.LoadLockedReq_avg_miss_latency::total        98000                       # average LoadLockedReq miss latency
system.cpu.dcache.LoadLockedReq_mshr_misses::.cpu.data            1                       # number of LoadLockedReq MSHR misses
system.cpu.dcache.LoadLockedReq_mshr_misses::total            1                       # number of LoadLockedReq MSHR misses
system.cpu.dcache.LoadLockedReq_mshr_miss_latency::.cpu.data        96000                       # number of LoadLockedReq MSHR miss cycles
system.cpu.dcache.LoadLockedReq_mshr_miss_latency::total        96000                       # number of LoadLockedReq MSHR miss cycles
system.cpu.dcache.LoadLockedReq_mshr_miss_rate::.cpu.data     0.055556                       # mshr miss rate for LoadLockedReq accesses
system.cpu.dcache.LoadLockedReq_mshr_miss_rate::total     0.055556                       # mshr miss rate for LoadLockedReq accesses
system.cpu.dcache.LoadLockedReq_avg_mshr_miss_latency::.cpu.data        96000                       # average LoadLockedReq mshr miss latency
system.cpu.dcache.LoadLockedReq_avg_mshr_miss_latency::total        96000                       # average LoadLockedReq mshr miss latency
system.cpu.dcache.StoreCondReq_hits::.cpu.data           18                       # number of StoreCondReq hits
system.cpu.dcache.StoreCondReq_hits::total           18                       # number of StoreCondReq hits
system.cpu.dcache.StoreCondReq_accesses::.cpu.data           18                       # number of StoreCondReq accesses(hits+misses)
system.cpu.dcache.StoreCondReq_accesses::total           18                       # number of StoreCondReq accesses(hits+misses)
system.cpu.dcache.power_state.pwrStateResidencyTicks::UNDEFINED     63958000                       # Cumulative time (in ticks) in various power states
system.cpu.dcache.tags.tagsinuse           107.945919                       # Cycle average of tags in use
system.cpu.dcache.tags.total_refs                4103                       # Total number of references to valid blocks.
system.cpu.dcache.tags.sampled_refs               191                       # Sample count of references to valid blocks.
system.cpu.dcache.tags.avg_refs             21.481675                       # Average number of references to valid blocks.
system.cpu.dcache.tags.warmup_cycle            223000                       # Cycle when the warmup percentage was hit.
system.cpu.dcache.tags.occ_blocks::.cpu.data   107.945919                       # Average occupied blocks per requestor
system.cpu.dcache.tags.occ_percent::.cpu.data     0.105416                       # Average percentage of cache occupancy
system.cpu.dcache.tags.occ_percent::total     0.105416                       # Average percentage of cache occupancy
system.cpu.dcache.tags.occ_task_id_blocks::1024          190                       # Occupied blocks per task id
system.cpu.dcache.tags.age_task_id_blocks_1024::0           22                       # Occupied blocks per task id
system.cpu.dcache.tags.age_task_id_blocks_1024::1          168                       # Occupied blocks per task id
system.cpu.dcache.tags.occ_task_id_percent::1024     0.185547                       # Percentage of cache occupancy per task id
system.cpu.dcache.tags.tag_accesses              8513                       # Number of tag accesses
system.cpu.dcache.tags.data_accesses             8513                       # Number of data accesses
system.cpu.dcache.tags.power_state.pwrStateResidencyTicks::UNDEFINED     63958000                       # Cumulative time (in ticks) in various power states
system.cpu.dtb.instHits                             0                       # ITB inst hits
system.cpu.dtb.instMisses                           0                       # ITB inst misses
system.cpu.dtb.readHits                             0                       # DTB read hits
system.cpu.dtb.readMisses                           0                       # DTB read misses
system.cpu.dtb.writeHits                            0                       # DTB write hits
system.cpu.dtb.writeMisses                          0                       # DTB write misses
system.cpu.dtb.inserts                              0                       # Number of times an entry is inserted into the TLB
system.cpu.dtb.flushTlb                             0                       # Number of times complete TLB was flushed
system.cpu.dtb.flushTlbMva                          0                       # Number of times TLB was flushed by MVA
system.cpu.dtb.flushTlbMvaAsid                      0                       # Number of times TLB was flushed by MVA & ASID
system.cpu.dtb.flushTlbAsid                         0                       # Number of times TLB was flushed by ASID
system.cpu.dtb.flushedEntries                       0                       # Number of entries that have been flushed from TLB
system.cpu.dtb.alignFaults                          0                       # Number of TLB faults due to alignment restrictions
system.cpu.dtb.prefetchFaults                       0                       # Number of TLB faults due to prefetch
system.cpu.dtb.domainFaults                         0                       # Number of TLB faults due to domain restrictions
system.cpu.dtb.permsFaults                          0                       # Number of TLB faults due to permissions restrictions
system.cpu.dtb.readAccesses                         0                       # DTB read accesses
system.cpu.dtb.writeAccesses                        0                       # DTB write accesses
system.cpu.dtb.instAccesses                         0                       # ITB inst accesses
system.cpu.dtb.hits                                 0                       # Total TLB (inst and data) hits
system.cpu.dtb.misses                               0                       # Total TLB (inst and data) misses
system.cpu.dtb.accesses                             0                       # Total TLB (inst and data) accesses
system.cpu.dtb.stage2_mmu.stage2_tlb.instHits            0                       # ITB inst hits
system.cpu.dtb.stage2_mmu.stage2_tlb.instMisses            0                       # ITB inst misses
system.cpu.dtb.stage2_mmu.stage2_tlb.readHits            0                       # DTB read hits
system.cpu.dtb.stage2_mmu.stage2_tlb.readMisses            0                       # DTB read misses
system.cpu.dtb.stage2_mmu.stage2_tlb.writeHits            0                       # DTB write hits
system.cpu.dtb.stage2_mmu.stage2_tlb.writeMisses            0                       # DTB write misses
system.cpu.dtb.stage2_mmu.stage2_tlb.inserts            0                       # Number of times an entry is inserted into the TLB
system.cpu.dtb.stage2_mmu.stage2_tlb.flushTlb            0                       # Number of times complete TLB was flushed
system.cpu.dtb.stage2_mmu.stage2_tlb.flushTlbMva            0                       # Number of times TLB was flushed by MVA
system.cpu.dtb.stage2_mmu.stage2_tlb.flushTlbMvaAsid            0                       # Number of times TLB was flushed by MVA & ASID
system.cpu.dtb.stage2_mmu.stage2_tlb.flushTlbAsid            0                       # Number of times TLB was flushed by ASID
system.cpu.dtb.stage2_mmu.stage2_tlb.flushedEntries            0                       # Number of entries that have been flushed from TLB
system.cpu.dtb.stage2_mmu.stage2_tlb.alignFaults            0                       # Number of TLB faults due to alignment restrictions
system.cpu.dtb.stage2_mmu.stage2_tlb.prefetchFaults            0                       # Number of TLB faults due to prefetch
system.cpu.dtb.stage2_mmu.stage2_tlb.domainFaults            0                       # Number of TLB faults due to domain restrictions
system.cpu.dtb.stage2_mmu.stage2_tlb.permsFaults            0                       # Number of TLB faults due to permissions restrictions
system.cpu.dtb.stage2_mmu.stage2_tlb.readAccesses            0                       # DTB read accesses
system.cpu.dtb.stage2_mmu.stage2_tlb.writeAccesses            0                       # DTB write accesses
system.cpu.dtb.stage2_mmu.stage2_tlb.instAccesses            0                       # ITB inst accesses
system.cpu.dtb.stage2_mmu.stage2_tlb.hits            0                       # Total TLB (inst and data) hits
system.cpu.dtb.stage2_mmu.stage2_tlb.misses            0                       # Total TLB (inst and data) misses
system.cpu.dtb.stage2_mmu.stage2_tlb.accesses            0                       # Total TLB (inst and data) accesses
system.cpu.dtb.stage2_mmu.stage2_tlb.walker.walks            0                       # Table walker walks requested
system.cpu.dtb.stage2_mmu.stage2_tlb.walker.requestOrigin_Requested::Data            0                       # Table walker requests started/completed, data/inst
system.cpu.dtb.stage2_mmu.stage2_tlb.walker.requestOrigin_Requested::Inst            0                       # Table walker requests started/completed, data/inst
system.cpu.dtb.stage2_mmu.stage2_tlb.walker.requestOrigin_Requested::total            0                       # Table walker requests started/completed, data/inst
system.cpu.dtb.stage2_mmu.stage2_tlb.walker.requestOrigin_Completed::Data            0                       # Table walker requests started/completed, data/inst
system.cpu.dtb.stage2_mmu.stage2_tlb.walker.requestOrigin_Completed::Inst            0                       # Table walker requests started/completed, data/inst
system.cpu.dtb.stage2_mmu.stage2_tlb.walker.requestOrigin_Completed::total            0                       # Table walker requests started/completed, data/inst
system.cpu.dtb.stage2_mmu.stage2_tlb.walker.requestOrigin::total            0                       # Table walker requests started/completed, data/inst
system.cpu.dtb.stage2_mmu.stage2_tlb.walker.power_state.pwrStateResidencyTicks::UNDEFINED     63958000                       # Cumulative time (in ticks) in various power states
system.cpu.dtb.walker.walks                         0                       # Table walker walks requested
system.cpu.dtb.walker.requestOrigin_Requested::Data            0                       # Table walker requests started/completed, data/inst
system.cpu.dtb.walker.requestOrigin_Requested::Inst            0                       # Table walker requests started/completed, data/inst
system.cpu.dtb.walker.requestOrigin_Requested::total            0                       # Table walker requests started/completed, data/inst
system.cpu.dtb.walker.requestOrigin_Completed::Data            0                       # Table walker requests started/completed, data/inst
system.cpu.dtb.walker.requestOrigin_Completed::Inst            0                       # Table walker requests started/completed, data/inst
system.cpu.dtb.walker.requestOrigin_Completed::total            0                       # Table walker requests started/completed, data/inst
system.cpu.dtb.walker.requestOrigin::total            0                       # Table walker requests started/completed, data/inst
system.cpu.dtb.walker.power_state.pwrStateResidencyTicks::UNDEFINED     63958000                       # Cumulative time (in ticks) in various power states
system.cpu.fetch2.intInstructions               11168                       # Number of integer instructions successfully decoded
system.cpu.fetch2.fpInstructions                    0                       # Number of floating point instructions successfully decoded
system.cpu.fetch2.vecInstructions                   0                       # Number of SIMD instructions successfully decoded
system.cpu.fetch2.loadInstructions               2668                       # Number of memory load instructions successfully decoded
system.cpu.fetch2.storeInstructions              1475                       # Number of memory store instructions successfully decoded
system.cpu.fetch2.amoInstructions                   0                       # Number of memory atomic instructions successfully decoded
system.cpu.icache.demand_hits::.cpu.inst         4266                       # number of demand (read+write) hits
system.cpu.icache.demand_hits::total             4266                       # number of demand (read+write) hits
system.cpu.icache.overall_hits::.cpu.inst         4266                       # number of overall hits
system.cpu.icache.overall_hits::total            4266                       # number of overall hits
system.cpu.icache.demand_misses::.cpu.inst          411                       # number of demand (read+write) misses
system.cpu.icache.demand_misses::total            411                       # number of demand (read+write) misses
system.cpu.icache.overall_misses::.cpu.inst          411                       # number of overall misses
system.cpu.icache.overall_misses::total           411                       # number of overall misses
system.cpu.icache.demand_miss_latency::.cpu.inst     40250000                       # number of demand (read+write) miss cycles
system.cpu.icache.demand_miss_latency::total     40250000                       # number of demand (read+write) miss cycles
system.cpu.icache.overall_miss_latency::.cpu.inst     40250000                       # number of overall miss cycles
system.cpu.icache.overall_miss_latency::total     40250000                       # number of overall miss cycles
system.cpu.icache.demand_accesses::.cpu.inst         4677                       # number of demand (read+write) accesses
system.cpu.icache.demand_accesses::total         4677                       # number of demand (read+write) accesses
system.cpu.icache.overall_accesses::.cpu.inst         4677                       # number of overall (read+write) accesses
system.cpu.icache.overall_accesses::total         4677                       # number of overall (read+write) accesses
system.cpu.icache.demand_miss_rate::.cpu.inst     0.087877                       # miss rate for demand accesses
system.cpu.icache.demand_miss_rate::total     0.087877                       # miss rate for demand accesses
system.cpu.icache.overall_miss_rate::.cpu.inst     0.087877                       # miss rate for overall accesses
system.cpu.icache.overall_miss_rate::total     0.087877                       # miss rate for overall accesses
system.cpu.icache.demand_avg_miss_latency::.cpu.inst 97931.873479                       # average overall miss latency
system.cpu.icache.demand_avg_miss_latency::total 97931.873479                       # average overall miss latency
system.cpu.icache.overall_avg_miss_latency::.cpu.inst 97931.873479                       # average overall miss latency
system.cpu.icache.overall_avg_miss_latency::total 97931.873479                       # average overall miss latency
system.cpu.icache.blocked_cycles::no_mshrs            0                       # number of cycles access was blocked
system.cpu.icache.blocked_cycles::no_targets            0                       # number of cycles access was blocked
system.cpu.icache.blocked::no_mshrs                 0                       # number of cycles access was blocked
system.cpu.icache.blocked::no_targets               0                       # number of cycles access was blocked
system.cpu.icache.avg_blocked_cycles::no_mshrs          nan                       # average number of cycles each access was blocked
system.cpu.icache.avg_blocked_cycles::no_targets          nan                       # average number of cycles each access was blocked
system.cpu.icache.writebacks::.writebacks          110                       # number of writebacks
system.cpu.icache.writebacks::total               110                       # number of writebacks
system.cpu.icache.demand_mshr_misses::.cpu.inst          411                       # number of demand (read+write) MSHR misses
system.cpu.icache.demand_mshr_misses::total          411                       # number of demand (read+write) MSHR misses
system.cpu.icache.overall_mshr_misses::.cpu.inst          411                       # number of overall MSHR misses
system.cpu.icache.overall_mshr_misses::total          411                       # number of overall MSHR misses
system.cpu.icache.demand_mshr_miss_latency::.cpu.inst     39428000                       # number of demand (read+write) MSHR miss cycles
system.cpu.icache.demand_mshr_miss_latency::total     39428000                       # number of demand (read+write) MSHR miss cycles
system.cpu.icache.overall_mshr_miss_latency::.cpu.inst     39428000                       # number of overall MSHR miss cycles
system.cpu.icache.overall_mshr_miss_latency::total     39428000                       # number of overall MSHR miss cycles
system.cpu.icache.demand_mshr_miss_rate::.cpu.inst     0.087877                       # mshr miss rate for demand accesses
system.cpu.icache.demand_mshr_miss_rate::total     0.087877                       # mshr miss rate for demand accesses
system.cpu.icache.overall_mshr_miss_rate::.cpu.inst     0.087877                       # mshr miss rate for overall accesses
system.cpu.icache.overall_mshr_miss_rate::total     0.087877                       # mshr miss rate for overall accesses
system.cpu.icache.demand_avg_mshr_miss_latency::.cpu.inst 95931.873479                       # average overall mshr miss latency
system.cpu.icache.demand_avg_mshr_miss_latency::total 95931.873479                       # average overall mshr miss latency
system.cpu.icache.overall_avg_mshr_miss_latency::.cpu.inst 95931.873479                       # average overall mshr miss latency
system.cpu.icache.overall_avg_mshr_miss_latency::total 95931.873479                       # average overall mshr miss latency
system.cpu.icache.replacements                    110                       # number of replacements
system.cpu.icache.ReadReq_hits::.cpu.inst         4266                       # number of ReadReq hits
system.cpu.icache.ReadReq_hits::total            4266                       # number of ReadReq hits
system.cpu.icache.ReadReq_misses::.cpu.inst          411                       # number of ReadReq misses
system.cpu.icache.ReadReq_misses::total           411                       # number of ReadReq misses
system.cpu.icache.ReadReq_miss_latency::.cpu.inst     40250000                       # number of ReadReq miss cycles
system.cpu.icache.ReadReq_miss_latency::total     40250000                       # number of ReadReq miss cycles
system.cpu.icache.ReadReq_accesses::.cpu.inst         4677                       # number of ReadReq accesses(hits+misses)
system.cpu.icache.ReadReq_accesses::total         4677                       # number of ReadReq accesses(hits+misses)
system.cpu.icache.ReadReq_miss_rate::.cpu.inst     0.087877                       # miss rate for ReadReq accesses
system.cpu.icache.ReadReq_miss_rate::total     0.087877                       # miss rate for ReadReq accesses
system.cpu.icache.ReadReq_avg_miss_latency::.cpu.inst 97931.873479                       # average ReadReq miss latency
system.cpu.icache.ReadReq_avg_miss_latency::total 97931.873479                       # average ReadReq miss latency
system.cpu.icache.ReadReq_mshr_misses::.cpu.inst          411                       # number of ReadReq MSHR misses
system.cpu.icache.ReadReq_mshr_misses::total          411                       # number of ReadReq MSHR misses
system.cpu.icache.ReadReq_mshr_miss_latency::.cpu.inst     39428000                       # number of ReadReq MSHR miss cycles
system.cpu.icache.ReadReq_mshr_miss_latency::total     39428000                       # number of ReadReq MSHR miss cycles
system.cpu.icache.ReadReq_mshr_miss_rate::.cpu.inst     0.087877                       # mshr miss rate for ReadReq accesses
system.cpu.icache.ReadReq_mshr_miss_rate::total     0.087877                       # mshr miss rate for ReadReq accesses
system.cpu.icache.ReadReq_avg_mshr_miss_latency::.cpu.inst 95931.873479                       # average ReadReq mshr miss latency
system.cpu.icache.ReadReq_avg_mshr_miss_latency::total 95931.873479                       # average ReadReq mshr miss latency
system.cpu.icache.power_state.pwrStateResidencyTicks::UNDEFINED     63958000                       # Cumulative time (in ticks) in various power states
system.cpu.icache.tags.tagsinuse           172.630635                       # Cycle average of tags in use
system.cpu.icache.tags.total_refs                4677                       # Total number of references to valid blocks.
system.cpu.icache.tags.sampled_refs               411                       # Sample count of references to valid blocks.
system.cpu.icache.tags.avg_refs             11.379562                       # Average number of references to valid blocks.
system.cpu.icache.tags.warmup_cycle            108000                       # Cycle when the warmup percentage was hit.
system.cpu.icache.tags.occ_blocks::.cpu.inst   172.630635                       # Average occupied blocks per requestor
system.cpu.icache.tags.occ_percent::.cpu.inst     0.337169                       # Average percentage of cache occupancy
system.cpu.icache.tags.occ_percent::total     0.337169                       # Average percentage of cache occupancy
system.cpu.icache.tags.occ_task_id_blocks::1024          301                       # Occupied blocks per task id
system.cpu.icache.tags.age_task_id_blocks_1024::0           69                       # Occupied blocks per task id
system.cpu.icache.tags.age_task_id_blocks_1024::1          232                       # Occupied blocks per task id
system.cpu.icache.tags.occ_task_id_percent::1024     0.587891                       # Percentage of cache occupancy per task id
system.cpu.icache.tags.tag_accesses              9765                       # Number of tag accesses
system.cpu.icache.tags.data_accesses             9765                       # Number of data accesses
system.cpu.icache.tags.power_state.pwrStateResidencyTicks::UNDEFINED     63958000                       # Cumulative time (in ticks) in various power states
system.cpu.itb.instHits                             0                       # ITB inst hits
system.cpu.itb.instMisses                           0                       # ITB inst misses
system.cpu.itb.readHits                             0                       # DTB read hits
system.cpu.itb.readMisses                           0                       # DTB read misses
system.cpu.itb.writeHits                            0                       # DTB write hits
system.cpu.itb.writeMisses                          0                       # DTB write misses
system.cpu.itb.inserts                              0                       # Number of times an entry is inserted into the TLB
system.cpu.itb.flushTlb                             0                       # Number of times complete TLB was flushed
system.cpu.itb.flushTlbMva                          0                       # Number of times TLB was flushed by MVA
system.cpu.itb.flushTlbMvaAsid                      0                       # Number of times TLB was flushed by MVA & ASID
system.cpu.itb.flushTlbAsid                         0                       # Number of times TLB was flushed by ASID
system.cpu.itb.flushedEntries                       0                       # Number of entries that have been flushed from TLB
system.cpu.itb.alignFaults                          0                       # Number of TLB faults due to alignment restrictions
system.cpu.itb.prefetchFaults                       0                       # Number of TLB faults due to prefetch
system.cpu.itb.domainFaults                         0                       # Number of TLB faults due to domain restrictions
system.cpu.itb.permsFaults                          0                       # Number of TLB faults due to permissions restrictions
system.cpu.itb.readAccesses                         0                       # DTB read accesses
system.cpu.itb.writeAccesses                        0                       # DTB write accesses
system.cpu.itb.instAccesses                         0                       # ITB inst accesses
system.cpu.itb.hits                                 0                       # Total TLB (inst and data) hits
system.cpu.itb.misses                               0                       # Total TLB (inst and data) misses
system.cpu.itb.accesses                             0                       # Total TLB (inst and data) accesses
system.cpu.itb.stage2_mmu.stage2_tlb.instHits            0                       # ITB inst hits
system.cpu.itb.stage2_mmu.stage2_tlb.instMisses            0                       # ITB inst misses
system.cpu.itb.stage2_mmu.stage2_tlb.readHits            0                       # DTB read hits
system.cpu.itb.stage2_mmu.stage2_tlb.readMisses            0                       # DTB read misses
system.cpu.itb.stage2_mmu.stage2_tlb.writeHits            0                       # DTB write hits
system.cpu.itb.stage2_mmu.stage2_tlb.writeMisses            0                       # DTB write misses
system.cpu.itb.stage2_mmu.stage2_tlb.inserts            0                       # Number of times an entry is inserted into the TLB
system.cpu.itb.stage2_mmu.stage2_tlb.flushTlb            0                       # Number of times complete TLB was flushed
system.cpu.itb.stage2_mmu.stage2_tlb.flushTlbMva            0                       # Number of times TLB was flushed by MVA
system.cpu.itb.stage2_mmu.stage2_tlb.flushTlbMvaAsid            0                       # Number of times TLB was flushed by MVA & ASID
system.cpu.itb.stage2_mmu.stage2_tlb.flushTlbAsid            0                       # Number of times TLB was flushed by ASID
system.cpu.itb.stage2_mmu.stage2_tlb.flushedEntries            0                       # Number of entries that have been flushed from TLB
system.cpu.itb.stage2_mmu.stage2_tlb.alignFaults            0                       # Number of TLB faults due to alignment restrictions
system.cpu.itb.stage2_mmu.stage2_tlb.prefetchFaults            0                       # Number of TLB faults due to prefetch
system.cpu.itb.stage2_mmu.stage2_tlb.domainFaults            0                       # Number of TLB faults due to domain restrictions
system.cpu.itb.stage2_mmu.stage2_tlb.permsFaults            0                       # Number of TLB faults due to permissions restrictions
system.cpu.itb.stage2_mmu.stage2_tlb.readAccesses            0                       # DTB read accesses
system.cpu.itb.stage2_mmu.stage2_tlb.writeAccesses            0                       # DTB write accesses
system.cpu.itb.stage2_mmu.stage2_tlb.instAccesses            0                       # ITB inst accesses
system.cpu.itb.stage2_mmu.stage2_tlb.hits            0                       # Total TLB (inst and data) hits
system.cpu.itb.stage2_mmu.stage2_tlb.misses            0                       # Total TLB (inst and data) misses
system.cpu.itb.stage2_mmu.stage2_tlb.accesses            0                       # Total TLB (inst and data) accesses
system.cpu.itb.stage2_mmu.stage2_tlb.walker.walks            0                       # Table walker walks requested
system.cpu.itb.stage2_mmu.stage2_tlb.walker.requestOrigin_Requested::Data            0                       # Table walker requests started/completed, data/inst
system.cpu.itb.stage2_mmu.stage2_tlb.walker.requestOrigin_Requested::Inst            0                       # Table walker requests started/completed, data/inst
system.cpu.itb.stage2_mmu.stage2_tlb.walker.requestOrigin_Requested::total            0                       # Table walker requests started/completed, data/inst
system.cpu.itb.stage2_mmu.stage2_tlb.walker.requestOrigin_Completed::Data            0                       # Table walker requests started/completed, data/inst
system.cpu.itb.stage2_mmu.stage2_tlb.walker.requestOrigin_Completed::Inst            0                       # Table walker requests started/completed, data/inst
system.cpu.itb.stage2_mmu.stage2_tlb.walker.requestOrigin_Completed::total            0                       # Table walker requests started/completed, data/inst
system.cpu.itb.stage2_mmu.stage2_tlb.walker.requestOrigin::total            0                       # Table walker requests started/completed, data/inst
system.cpu.itb.stage2_mmu.stage2_tlb.walker.power_state.pwrStateResidencyTicks::UNDEFINED     63958000                       # Cumulative time (in ticks) in various power states
system.cpu.itb.walker.walks                         0                       # Table walker walks requested
system.cpu.itb.walker.requestOrigin_Requested::Data            0                       # Table walker requests started/completed, data/inst
system.cpu.itb.walker.requestOrigin_Requested::Inst            0                       # Table walker requests started/completed, data/inst
system.cpu.itb.walker.requestOrigin_Requested::total            0                       # Table walker requests started/completed, data/inst
system.cpu.itb.walker.requestOrigin_Completed::Data            0                       # Table walker requests started/completed, data/inst
system.cpu.itb.walker.requestOrigin_Completed::Inst            0                       # Table walker requests started/completed, data/inst
system.cpu.itb.walker.requestOrigin_Completed::total            0                       # Table walker requests started/completed, data/inst
system.cpu.itb.walker.requestOrigin::total            0                       # Table walker requests started/completed, data/inst
system.cpu.itb.walker.power_state.pwrStateResidencyTicks::UNDEFINED     63958000                       # Cumulative time (in ticks) in various power states
system.cpu.power_state.pwrStateResidencyTicks::ON     63958000                       # Cumulative time (in ticks) in various power states
system.cpu.thread_0.numInsts                    11558                       # Number of Instructions committed
system.cpu.thread_0.numOps                      13307                       # Number of Ops committed
system.cpu.thread_0.numMemRefs                      0                       # Number of Memory References
system.cpu_clk_domain.clock                      1000                       # Clock period in ticks
system.cpu_voltage_domain.voltage                   1                       # Voltage in Volts
system.l2.demand_hits::.cpu.inst                   27                       # number of demand (read+write) hits
system.l2.demand_hits::.cpu.data                   14                       # number of demand (read+write) hits
system.l2.demand_hits::total                       41                       # number of demand (read+write) hits
system.l2.overall_hits::.cpu.inst                  27                       # number of overall hits
system.l2.overall_hits::.cpu.data                  14                       # number of overall hits
system.l2.overall_hits::total                      41                       # number of overall hits
system.l2.demand_misses::.cpu.inst                384                       # number of demand (read+write) misses
system.l2.demand_misses::.cpu.data                177                       # number of demand (read+write) misses
system.l2.demand_misses::total                    561                       # number of demand (read+write) misses
system.l2.overall_misses::.cpu.inst               384                       # number of overall misses
system.l2.overall_misses::.cpu.data               177                       # number of overall misses
system.l2.overall_misses::total                   561                       # number of overall misses
system.l2.demand_miss_latency::.cpu.inst     37614000                       # number of demand (read+write) miss cycles
system.l2.demand_miss_latency::.cpu.data     17624000                       # number of demand (read+write) miss cycles
system.l2.demand_miss_latency::total         55238000                       # number of demand (read+write) miss cycles
system.l2.overall_miss_latency::.cpu.inst     37614000                       # number of overall miss cycles
system.l2.overall_miss_latency::.cpu.data     17624000                       # number of overall miss cycles
system.l2.overall_miss_latency::total        55238000                       # number of overall miss cycles
system.l2.demand_accesses::.cpu.inst              411                       # number of demand (read+write) accesses
system.l2.demand_accesses::.cpu.data              191                       # number of demand (read+write) accesses
system.l2.demand_accesses::total                  602                       # number of demand (read+write) accesses
system.l2.overall_accesses::.cpu.inst             411                       # number of overall (read+write) accesses
system.l2.overall_accesses::.cpu.data             191                       # number of overall (read+write) accesses
system.l2.overall_accesses::total                 602                       # number of overall (read+write) accesses
system.l2.demand_miss_rate::.cpu.inst        0.934307                       # miss rate for demand accesses
system.l2.demand_miss_rate::.cpu.data        0.926702                       # miss rate for demand accesses
system.l2.demand_miss_rate::total            0.931894                       # miss rate for demand accesses
system.l2.overall_miss_rate::.cpu.inst       0.934307                       # miss rate for overall accesses
system.l2.overall_miss_rate::.cpu.data       0.926702                       # miss rate for overall accesses
system.l2.overall_miss_rate::total           0.931894                       # miss rate for overall accesses
system.l2.demand_avg_miss_latency::.cpu.inst 97953.125000                       # average overall miss latency
system.l2.demand_avg_miss_latency::.cpu.data 99570.621469                       # average overall miss latency
system.l2.demand_avg_miss_latency::total 98463.458111                       # average overall miss latency
system.l2.overall_avg_miss_latency::.cpu.inst 97953.125000                       # average overall miss latency
system.l2.overall_avg_miss_latency::.cpu.data 99570.621469                       # average overall miss latency
system.l2.overall_avg_miss_latency::total 98463.458111                       # average overall miss latency
system.l2.blocked_cycles::no_mshrs                  0                       # number of cycles access was blocked
system.l2.blocked_cycles::no_targets                0                       # number of cycles access was blocked
system.l2.blocked::no_mshrs                         0                       # number of cycles access was blocked
system.l2.blocked::no_targets                       0                       # number of cycles access was blocked
system.l2.avg_blocked_cycles::no_mshrs            nan                       # average number of cycles each access was blocked
system.l2.avg_blocked_cycles::no_targets          nan                       # average number of cycles each access was blocked
system.l2.demand_mshr_hits::.cpu.data               2                       # number of demand (read+write) MSHR hits
system.l2.demand_mshr_hits::total                   2                       # number of demand (read+write) MSHR hits
system.l2.overall_mshr_hits::.cpu.data              2                       # number of overall MSHR hits
system.l2.overall_mshr_hits::total                  2                       # number of overall MSHR hits
system.l2.demand_mshr_misses::.cpu.inst           384                       # number of demand (read+write) MSHR misses
system.l2.demand_mshr_misses::.cpu.data           175                       # number of demand (read+write) MSHR misses
system.l2.demand_mshr_misses::total               559                       # number of demand (read+write) MSHR misses
system.l2.overall_mshr_misses::.cpu.inst          384                       # number of overall MSHR misses
system.l2.overall_mshr_misses::.cpu.data          175                       # number of overall MSHR misses
system.l2.overall_mshr_misses::total              559                       # number of overall MSHR misses
system.l2.demand_mshr_miss_latency::.cpu.inst     29934000                       # number of demand (read+write) MSHR miss cycles
system.l2.demand_mshr_miss_latency::.cpu.data     13952000                       # number of demand (read+write) MSHR miss cycles
system.l2.demand_mshr_miss_latency::total     43886000                       # number of demand (read+write) MSHR miss cycles
system.l2.overall_mshr_miss_latency::.cpu.inst     29934000                       # number of overall MSHR miss cycles
system.l2.overall_mshr_miss_latency::.cpu.data     13952000                       # number of overall MSHR miss cycles
system.l2.overall_mshr_miss_latency::total     43886000                       # number of overall MSHR miss cycles
system.l2.demand_mshr_miss_rate::.cpu.inst     0.934307                       # mshr miss rate for demand accesses
system.l2.demand_mshr_miss_rate::.cpu.data     0.916230                       # mshr miss rate for demand accesses
system.l2.demand_mshr_miss_rate::total       0.928571                       # mshr miss rate for demand accesses
system.l2.overall_mshr_miss_rate::.cpu.inst     0.934307                       # mshr miss rate for overall accesses
system.l2.overall_mshr_miss_rate::.cpu.data     0.916230                       # mshr miss rate for overall accesses
system.l2.overall_mshr_miss_rate::total      0.928571                       # mshr miss rate for overall accesses
system.l2.demand_avg_mshr_miss_latency::.cpu.inst 77953.125000                       # average overall mshr miss latency
system.l2.demand_avg_mshr_miss_latency::.cpu.data 79725.714286                       # average overall mshr miss latency
system.l2.demand_avg_mshr_miss_latency::total 78508.050089                       # average overall mshr miss latency
system.l2.overall_avg_mshr_miss_latency::.cpu.inst 77953.125000                       # average overall mshr miss latency
system.l2.overall_avg_mshr_miss_latency::.cpu.data 79725.714286                       # average overall mshr miss latency
system.l2.overall_avg_mshr_miss_latency::total 78508.050089                       # average overall mshr miss latency
system.l2.replacements                              0                       # number of replacements
system.l2.WritebackClean_hits::.writebacks          101                       # number of WritebackClean hits
system.l2.WritebackClean_hits::total              101                       # number of WritebackClean hits
system.l2.WritebackClean_accesses::.writebacks          101                       # number of WritebackClean accesses(hits+misses)
system.l2.WritebackClean_accesses::total          101                       # number of WritebackClean accesses(hits+misses)
system.l2.ReadExReq_misses::.cpu.data              71                       # number of ReadExReq misses
system.l2.ReadExReq_misses::total                  71                       # number of ReadExReq misses
system.l2.ReadExReq_miss_latency::.cpu.data      7053000                       # number of ReadExReq miss cycles
system.l2.ReadExReq_miss_latency::total       7053000                       # number of ReadExReq miss cycles
system.l2.ReadExReq_accesses::.cpu.data            71                       # number of ReadExReq accesses(hits+misses)
system.l2.ReadExReq_accesses::total                71                       # number of ReadExReq accesses(hits+misses)
system.l2.ReadExReq_miss_rate::.cpu.data            1                       # miss rate for ReadExReq accesses
system.l2.ReadExReq_miss_rate::total                1                       # miss rate for ReadExReq accesses
system.l2.ReadExReq_avg_miss_latency::.cpu.data 99338.028169                       # average ReadExReq miss latency
system.l2.ReadExReq_avg_miss_latency::total 99338.028169                       # average ReadExReq miss latency
system.l2.ReadExReq_mshr_misses::.cpu.data           71                       # number of ReadExReq MSHR misses
system.l2.ReadExReq_mshr_misses::total             71                       # number of ReadExReq MSHR misses
system.l2.ReadExReq_mshr_miss_latency::.cpu.data      5633000                       # number of ReadExReq MSHR miss cycles
system.l2.ReadExReq_mshr_miss_latency::total      5633000                       # number of ReadExReq MSHR miss cycles
system.l2.ReadExReq_mshr_miss_rate::.cpu.data            1                       # mshr miss rate for ReadExReq accesses
system.l2.ReadExReq_mshr_miss_rate::total            1                       # mshr miss rate for ReadExReq accesses
system.l2.ReadExReq_avg_mshr_miss_latency::.cpu.data 79338.028169                       # average ReadExReq mshr miss latency
system.l2.ReadExReq_avg_mshr_miss_latency::total 79338.028169                       # average ReadExReq mshr miss latency
system.l2.ReadCleanReq_hits::.cpu.inst             27                       # number of ReadCleanReq hits
system.l2.ReadCleanReq_hits::total                 27                       # number of ReadCleanReq hits
system.l2.ReadCleanReq_misses::.cpu.inst          384                       # number of ReadCleanReq misses
system.l2.ReadCleanReq_misses::total              384                       # number of ReadCleanReq misses
system.l2.ReadCleanReq_miss_latency::.cpu.inst     37614000                       # number of ReadCleanReq miss cycles
system.l2.ReadCleanReq_miss_latency::total     37614000                       # number of ReadCleanReq miss cycles
system.l2.ReadCleanReq_accesses::.cpu.inst          411                       # number of ReadCleanReq accesses(hits+misses)
system.l2.ReadCleanReq_accesses::total            411                       # number of ReadCleanReq accesses(hits+misses)
system.l2.ReadCleanReq_miss_rate::.cpu.inst     0.934307                       # miss rate for ReadCleanReq accesses
system.l2.ReadCleanReq_miss_rate::total      0.934307                       # miss rate for ReadCleanReq accesses
system.l2.ReadCleanReq_avg_miss_latency::.cpu.inst 97953.125000                       # average ReadCleanReq miss latency
system.l2.ReadCleanReq_avg_miss_latency::total 97953.125000                       # average ReadCleanReq miss latency
system.l2.ReadCleanReq_mshr_misses::.cpu.inst          384                       # number of ReadCleanReq MSHR misses
system.l2.ReadCleanReq_mshr_misses::total          384                       # number of ReadCleanReq MSHR misses
system.l2.ReadCleanReq_mshr_miss_latency::.cpu.inst     29934000                       # number of ReadCleanReq MSHR miss cycles
system.l2.ReadCleanReq_mshr_miss_latency::total     29934000                       # number of ReadCleanReq MSHR miss cycles
system.l2.ReadCleanReq_mshr_miss_rate::.cpu.inst     0.934307                       # mshr miss rate for ReadCleanReq accesses
system.l2.ReadCleanReq_mshr_miss_rate::total     0.934307                       # mshr miss rate for ReadCleanReq accesses
system.l2.ReadCleanReq_avg_mshr_miss_latency::.cpu.inst 77953.125000                       # average ReadCleanReq mshr miss latency
system.l2.ReadCleanReq_avg_mshr_miss_latency::total 77953.125000                       # average ReadCleanReq mshr miss latency
system.l2.ReadSharedReq_hits::.cpu.data            14                       # number of ReadSharedReq hits
system.l2.ReadSharedReq_hits::total                14                       # number of ReadSharedReq hits
system.l2.ReadSharedReq_misses::.cpu.data          106                       # number of ReadSharedReq misses
system.l2.ReadSharedReq_misses::total             106                       # number of ReadSharedReq misses
system.l2.ReadSharedReq_miss_latency::.cpu.data     10571000                       # number of ReadSharedReq miss cycles
system.l2.ReadSharedReq_miss_latency::total     10571000                       # number of ReadSharedReq miss cycles
system.l2.ReadSharedReq_accesses::.cpu.data          120                       # number of ReadSharedReq accesses(hits+misses)
system.l2.ReadSharedReq_accesses::total           120                       # number of ReadSharedReq accesses(hits+misses)
system.l2.ReadSharedReq_miss_rate::.cpu.data     0.883333                       # miss rate for ReadSharedReq accesses
system.l2.ReadSharedReq_miss_rate::total     0.883333                       # miss rate for ReadSharedReq accesses
system.l2.ReadSharedReq_avg_miss_latency::.cpu.data 99726.415094                       # average ReadSharedReq miss latency
system.l2.ReadSharedReq_avg_miss_latency::total 99726.415094                       # average ReadSharedReq miss latency
system.l2.ReadSharedReq_mshr_hits::.cpu.data            2                       # number of ReadSharedReq MSHR hits
system.l2.ReadSharedReq_mshr_hits::total            2                       # number of ReadSharedReq MSHR hits
system.l2.ReadSharedReq_mshr_misses::.cpu.data          104                       # number of ReadSharedReq MSHR misses
system.l2.ReadSharedReq_mshr_misses::total          104                       # number of ReadSharedReq MSHR misses
system.l2.ReadSharedReq_mshr_miss_latency::.cpu.data      8319000                       # number of ReadSharedReq MSHR miss cycles
system.l2.ReadSharedReq_mshr_miss_latency::total      8319000                       # number of ReadSharedReq MSHR miss cycles
system.l2.ReadSharedReq_mshr_miss_rate::.cpu.data     0.866667                       # mshr miss rate for ReadSharedReq accesses
system.l2.ReadSharedReq_mshr_miss_rate::total     0.866667                       # mshr miss rate for ReadSharedReq accesses
system.l2.ReadSharedReq_avg_mshr_miss_latency::.cpu.data 79990.384615                       # average ReadSharedReq mshr miss latency
system.l2.ReadSharedReq_avg_mshr_miss_latency::total 79990.384615                       # average ReadSharedReq mshr miss latency
system.l2.power_state.pwrStateResidencyTicks::UNDEFINED     63958000                       # Cumulative time (in ticks) in various power states
system.l2.tags.tagsinuse                   300.438589                       # Cycle average of tags in use
system.l2.tags.total_refs                         701                       # Total number of references to valid blocks.
system.l2.tags.sampled_refs                       559                       # Sample count of references to valid blocks.
system.l2.tags.avg_refs                      1.254025                       # Average number of references to valid blocks.
system.l2.tags.warmup_cycle                     87000                       # Cycle when the warmup percentage was hit.
system.l2.tags.occ_blocks::.cpu.inst       199.898952                       # Average occupied blocks per requestor
system.l2.tags.occ_blocks::.cpu.data       100.539637                       # Average occupied blocks per requestor
system.l2.tags.occ_percent::.cpu.inst        0.006100                       # Average percentage of cache occupancy
system.l2.tags.occ_percent::.cpu.data        0.003068                       # Average percentage of cache occupancy
system.l2.tags.occ_percent::total            0.009169                       # Average percentage of cache occupancy
system.l2.tags.occ_task_id_blocks::1024           559                       # Occupied blocks per task id
system.l2.tags.age_task_id_blocks_1024::0           82                       # Occupied blocks per task id
system.l2.tags.age_task_id_blocks_1024::1          477                       # Occupied blocks per task id
system.l2.tags.occ_task_id_percent::1024     0.017059                       # Percentage of cache occupancy per task id
system.l2.tags.tag_accesses                      6183                       # Number of tag accesses
system.l2.tags.data_accesses                     6183                       # Number of data accesses
system.l2.tags.power_state.pwrStateResidencyTicks::UNDEFINED     63958000                       # Cumulative time (in ticks) in various power states
system.mem_ctrls.avgPriority_.cpu.inst::samples       384.00                       # Average QoS priority value for accepted requests
system.mem_ctrls.avgPriority_.cpu.data::samples       175.00                       # Average QoS priority value for accepted requests
system.mem_ctrls.priorityMinLatency      0.000000018750                       # per QoS priority minimum request to response latency (s)
system.mem_ctrls.priorityMaxLatency      0.000000567000                       # per QoS priority maximum request to response latency (s)
system.mem_ctrls.numReadWriteTurnArounds            0                       # Number of turnarounds from READ to WRITE
system.mem_ctrls.numWriteReadTurnArounds            0                       # Number of turnarounds from WRITE to READ
system.mem_ctrls.numStayReadState                1132                       # Number of times bus staying in READ state
system.mem_ctrls.numStayWriteState                  0                       # Number of times bus staying in WRITE state
system.mem_ctrls.readReqs                         559                       # Number of read requests accepted
system.mem_ctrls.writeReqs                          0                       # Number of write requests accepted
system.mem_ctrls.readBursts                       559                       # Number of controller read bursts, including those serviced by the write queue
system.mem_ctrls.writeBursts                        0                       # Number of controller write bursts, including those merged in the write queue
system.mem_ctrls.servicedByWrQ                      0                       # Number of controller read bursts serviced by the write queue
system.mem_ctrls.mergedWrBursts                     0                       # Number of controller write bursts merged with an existing one
system.mem_ctrls.neitherReadNorWriteReqs            0                       # Number of requests that are neither read nor write
system.mem_ctrls.avgRdQLen                       1.13                       # Average read queue length when enqueuing
system.mem_ctrls.avgWrQLen                       0.00                       # Average write queue length when enqueuing
system.mem_ctrls.numRdRetry                         0                       # Number of times read queue was full causing retry
system.mem_ctrls.numWrRetry                         0                       # Number of times write queue was full causing retry
system.mem_ctrls.readPktSize::0                     0                       # Read request sizes (log2)
system.mem_ctrls.readPktSize::1                     0                       # Read request sizes (log2)
system.mem_ctrls.readPktSize::2                     0                       # Read request sizes (log2)
system.mem_ctrls.readPktSize::3                     0                       # Read request sizes (log2)
system.mem_ctrls.readPktSize::4                     0                       # Read request sizes (log2)
system.mem_ctrls.readPktSize::5                     0                       # Read request sizes (log2)
system.mem_ctrls.readPktSize::6                   559                       # Read request sizes (log2)
system.mem_ctrls.writePktSize::0                    0                       # Write request sizes (log2)
system.mem_ctrls.writePktSize::1                    0                       # Write request sizes (log2)
system.mem_ctrls.writePktSize::2                    0                       # Write request sizes (log2)
system.mem_ctrls.writePktSize::3                    0                       # Write request sizes (log2)
system.mem_ctrls.writePktSize::4                    0                       # Write request sizes (log2)
system.mem_ctrls.writePktSize::5                    0                       # Write request sizes (log2)
system.mem_ctrls.writePktSize::6                    0                       # Write request sizes (log2)
system.mem_ctrls.rdQLenPdf::0                     481                       # What read queue length does an incoming req see
system.mem_ctrls.rdQLenPdf::1                      75                       # What read queue length does an incoming req see
system.mem_ctrls.rdQLenPdf::2                       3                       # What read queue length does an incoming req see
system.mem_ctrls.rdQLenPdf::3                       0                       # What read queue length does an incoming req see
system.mem_ctrls.rdQLenPdf::4                       0                       # What read queue length does an incoming req see
system.mem_ctrls.rdQLenPdf::5                       0                       # What read queue length does an incoming req see
system.mem_ctrls.rdQLenPdf::6                       0                       # What read queue length does an incoming req see
system.mem_ctrls.rdQLenPdf::7                       0                       # What read queue length does an incoming req see
system.mem_ctrls.rdQLenPdf::8                       0                       # What read queue length does an incoming req see
system.mem_ctrls.rdQLenPdf::9                       0                       # What read queue length does an incoming req see
system.mem_ctrls.rdQLenPdf::10                      0                       # What read queue length does an incoming req see
[...]
system.mem_ctrls.dram.bw_read::.cpu.inst    384252165                       # Total read bandwidth from this memory (bytes/s)
system.mem_ctrls.dram.bw_read::.cpu.data    175114919                       # Total read bandwidth from this memory (bytes/s)
system.mem_ctrls.dram.bw_read::total        559367085                       # Total read bandwidth from this memory (bytes/s)
system.mem_ctrls.dram.bw_inst_read::.cpu.inst    384252165                       # Instruction read bandwidth from this memory (bytes/s)
system.mem_ctrls.dram.bw_inst_read::total    384252165                       # Instruction read bandwidth from this memory (bytes/s)
system.mem_ctrls.dram.bw_total::.cpu.inst    384252165                       # Total bandwidth to/from this memory (bytes/s)
system.mem_ctrls.dram.bw_total::.cpu.data    175114919                       # Total bandwidth to/from this memory (bytes/s)
system.mem_ctrls.dram.bw_total::total       559367085                       # Total bandwidth to/from this memory (bytes/s)
system.mem_ctrls.dram.readBursts                  559                       # Number of DRAM read bursts
system.mem_ctrls.dram.writeBursts                   0                       # Number of DRAM write bursts
system.mem_ctrls.dram.perBankRdBursts::0           91                       # Per bank write bursts
system.mem_ctrls.dram.perBankRdBursts::1           60                       # Per bank write bursts
system.mem_ctrls.dram.perBankRdBursts::2           66                       # Per bank write bursts
system.mem_ctrls.dram.perBankRdBursts::3           24                       # Per bank write bursts
system.mem_ctrls.dram.perBankRdBursts::4           52                       # Per bank write bursts
system.mem_ctrls.dram.perBankRdBursts::5           16                       # Per bank write bursts
system.mem_ctrls.dram.perBankRdBursts::6            2                       # Per bank write bursts
system.mem_ctrls.dram.perBankRdBursts::7           21                       # Per bank write bursts
system.mem_ctrls.dram.perBankRdBursts::8            4                       # Per bank write bursts
system.mem_ctrls.dram.perBankRdBursts::9            6                       # Per bank write bursts
system.mem_ctrls.dram.perBankRdBursts::10           25                       # Per bank write bursts
system.mem_ctrls.dram.perBankRdBursts::11           41                       # Per bank write bursts
system.mem_ctrls.dram.perBankRdBursts::12           60                       # Per bank write bursts
system.mem_ctrls.dram.perBankRdBursts::13           23                       # Per bank write bursts
system.mem_ctrls.dram.perBankRdBursts::14           27                       # Per bank write bursts
system.mem_ctrls.dram.perBankRdBursts::15           41                       # Per bank write bursts
system.mem_ctrls.dram.perBankWrBursts::0            0                       # Per bank write bursts
system.mem_ctrls.dram.perBankWrBursts::1            0                       # Per bank write bursts
system.mem_ctrls.dram.perBankWrBursts::2            0                       # Per bank write bursts
system.mem_ctrls.dram.perBankWrBursts::3            0                       # Per bank write bursts
system.mem_ctrls.dram.perBankWrBursts::4            0                       # Per bank write bursts
system.mem_ctrls.dram.perBankWrBursts::5            0                       # Per bank write bursts
system.mem_ctrls.dram.perBankWrBursts::6            0                       # Per bank write bursts
system.mem_ctrls.dram.perBankWrBursts::7            0                       # Per bank write bursts
system.mem_ctrls.dram.perBankWrBursts::8            0                       # Per bank write bursts
system.mem_ctrls.dram.perBankWrBursts::9            0                       # Per bank write bursts
system.mem_ctrls.dram.perBankWrBursts::10            0                       # Per bank write bursts
system.mem_ctrls.dram.perBankWrBursts::11            0                       # Per bank write bursts
system.mem_ctrls.dram.perBankWrBursts::12            0                       # Per bank write bursts
system.mem_ctrls.dram.perBankWrBursts::13            0                       # Per bank write bursts
system.mem_ctrls.dram.perBankWrBursts::14            0                       # Per bank write bursts
system.mem_ctrls.dram.perBankWrBursts::15            0                       # Per bank write bursts
system.mem_ctrls.dram.totQLat                 4705750                       # Total ticks spent queuing
system.mem_ctrls.dram.totBusLat               2795000                       # Total ticks spent in databus transfers
system.mem_ctrls.dram.totMemAccLat           15187000                       # Total ticks spent from burst creation until serviced by the DRAM
system.mem_ctrls.dram.avgQLat                 8418.16                       # Average queueing delay per DRAM burst
system.mem_ctrls.dram.avgBusLat               5000.00                       # Average bus latency per DRAM burst
system.mem_ctrls.dram.avgMemAccLat           27168.16                       # Average memory access latency per DRAM burst
system.mem_ctrls.dram.readRowHits                 422                       # Number of row buffer hits during reads
system.mem_ctrls.dram.writeRowHits                  0                       # Number of row buffer hits during writes
system.mem_ctrls.dram.readRowHitRate            75.49                       # Row buffer hit rate for reads
system.mem_ctrls.dram.writeRowHitRate             nan                       # Row buffer hit rate for writes
system.mem_ctrls.dram.bytesPerActivate::samples          133                       # Bytes accessed per row activation
system.mem_ctrls.dram.bytesPerActivate::mean   263.699248                       # Bytes accessed per row activation
system.mem_ctrls.dram.bytesPerActivate::gmean   180.602415                       # Bytes accessed per row activation
system.mem_ctrls.dram.bytesPerActivate::stdev   254.667757                       # Bytes accessed per row activation
system.mem_ctrls.dram.bytesPerActivate::0-127           37     27.82%     27.82% # Bytes accessed per row activation
system.mem_ctrls.dram.bytesPerActivate::128-255           43     32.33%     60.15% # Bytes accessed per row activation
system.mem_ctrls.dram.bytesPerActivate::256-383           24     18.05%     78.20% # Bytes accessed per row activation
system.mem_ctrls.dram.bytesPerActivate::384-511            9      6.77%     84.96% # Bytes accessed per row activation
system.mem_ctrls.dram.bytesPerActivate::512-639            7      5.26%     90.23% # Bytes accessed per row activation
system.mem_ctrls.dram.bytesPerActivate::640-767            2      1.50%     91.73% # Bytes accessed per row activation
system.mem_ctrls.dram.bytesPerActivate::768-895            3      2.26%     93.98% # Bytes accessed per row activation
system.mem_ctrls.dram.bytesPerActivate::896-1023            2      1.50%     95.49% # Bytes accessed per row activation
system.mem_ctrls.dram.bytesPerActivate::1024-1151            6      4.51%    100.00% # Bytes accessed per row activation
system.mem_ctrls.dram.bytesPerActivate::total          133                       # Bytes accessed per row activation
system.mem_ctrls.dram.bytesRead                 35776                       # Total number of bytes read from DRAM
system.mem_ctrls.dram.bytesWritten                  0                       # Total number of bytes written to DRAM
system.mem_ctrls.dram.avgRdBW              559.367085                       # Average DRAM read bandwidth in MiBytes/s
system.mem_ctrls.dram.avgWrBW                       0                       # Average DRAM write bandwidth in MiBytes/s
system.mem_ctrls.dram.peakBW                 12800.00                       # Theoretical peak bandwidth in MiByte/s
system.mem_ctrls.dram.busUtil                    4.37                       # Data bus utilization in percentage
system.mem_ctrls.dram.busUtilRead                4.37                       # Data bus utilization in percentage for reads
system.mem_ctrls.dram.busUtilWrite               0.00                       # Data bus utilization in percentage for writes
system.mem_ctrls.dram.pageHitRate               75.49                       # Row buffer hit rate, read and write combined
system.mem_ctrls.dram.power_state.pwrStateResidencyTicks::UNDEFINED     63958000                       # Cumulative time (in ticks) in various power states
system.mem_ctrls.dram.rank0.actEnergy          656880                       # Energy for activate commands per rank (pJ)
system.mem_ctrls.dram.rank0.preEnergy          349140                       # Energy for precharge commands per rank (pJ)
system.mem_ctrls.dram.rank0.readEnergy        2370480                       # Energy for read commands per rank (pJ)
system.mem_ctrls.dram.rank0.writeEnergy             0                       # Energy for write commands per rank (pJ)
system.mem_ctrls.dram.rank0.refreshEnergy 4917120.000000                       # Energy for refresh commands per rank (pJ)
system.mem_ctrls.dram.rank0.actBackEnergy     27549240                       # Energy for active background per rank (pJ)
system.mem_ctrls.dram.rank0.preBackEnergy      1360800                       # Energy for precharge background per rank (pJ)
system.mem_ctrls.dram.rank0.actPowerDownEnergy            0                       # Energy for active power-down per rank (pJ)
system.mem_ctrls.dram.rank0.prePowerDownEnergy            0                       # Energy for precharge power-down per rank (pJ)
system.mem_ctrls.dram.rank0.selfRefreshEnergy            0                       # Energy for self refresh per rank (pJ)
system.mem_ctrls.dram.rank0.totalEnergy      37203660                       # Total energy per rank (pJ)
system.mem_ctrls.dram.rank0.averagePower   581.688921                       # Core power per rank (mW)
system.mem_ctrls.dram.rank0.totalIdleTime            0                       # Total Idle time Per DRAM Rank
system.mem_ctrls.dram.rank0.pwrStateTime::IDLE      3306750                       # Time in different power states
system.mem_ctrls.dram.rank0.pwrStateTime::REF      2080000                       # Time in different power states
system.mem_ctrls.dram.rank0.pwrStateTime::SREF            0                       # Time in different power states
system.mem_ctrls.dram.rank0.pwrStateTime::PRE_PDN            0                       # Time in different power states
system.mem_ctrls.dram.rank0.pwrStateTime::ACT     58571250                       # Time in different power states
system.mem_ctrls.dram.rank0.pwrStateTime::ACT_PDN            0                       # Time in different power states
system.mem_ctrls.dram.rank1.actEnergy          321300                       # Energy for activate commands per rank (pJ)
system.mem_ctrls.dram.rank1.preEnergy          155595                       # Energy for precharge commands per rank (pJ)
system.mem_ctrls.dram.rank1.readEnergy        1620780                       # Energy for read commands per rank (pJ)
system.mem_ctrls.dram.rank1.writeEnergy             0                       # Energy for write commands per rank (pJ)
system.mem_ctrls.dram.rank1.refreshEnergy 4917120.000000                       # Energy for refresh commands per rank (pJ)
system.mem_ctrls.dram.rank1.actBackEnergy     26005110                       # Energy for active background per rank (pJ)
system.mem_ctrls.dram.rank1.preBackEnergy      2661120                       # Energy for precharge background per rank (pJ)
system.mem_ctrls.dram.rank1.actPowerDownEnergy            0                       # Energy for active power-down per rank (pJ)
system.mem_ctrls.dram.rank1.prePowerDownEnergy            0                       # Energy for precharge power-down per rank (pJ)
system.mem_ctrls.dram.rank1.selfRefreshEnergy            0                       # Energy for self refresh per rank (pJ)
system.mem_ctrls.dram.rank1.totalEnergy      35681025                       # Total energy per rank (pJ)
system.mem_ctrls.dram.rank1.averagePower   557.882126                       # Core power per rank (mW)
system.mem_ctrls.dram.rank1.totalIdleTime            0                       # Total Idle time Per DRAM Rank
system.mem_ctrls.dram.rank1.pwrStateTime::IDLE      6693250                       # Time in different power states
system.mem_ctrls.dram.rank1.pwrStateTime::REF      2080000                       # Time in different power states
system.mem_ctrls.dram.rank1.pwrStateTime::SREF            0                       # Time in different power states
system.mem_ctrls.dram.rank1.pwrStateTime::PRE_PDN            0                       # Time in different power states
system.mem_ctrls.dram.rank1.pwrStateTime::ACT     55184750                       # Time in different power states
system.mem_ctrls.dram.rank1.pwrStateTime::ACT_PDN            0                       # Time in different power states
system.mem_ctrls.power_state.pwrStateResidencyTicks::UNDEFINED     63958000                       # Cumulative time (in ticks) in various power states
system.membus.trans_dist::ReadResp                488                       # Transaction distribution
system.membus.trans_dist::ReadExReq                71                       # Transaction distribution
system.membus.trans_dist::ReadExResp               71                       # Transaction distribution
system.membus.trans_dist::ReadSharedReq           488                       # Transaction distribution
system.membus.pkt_count_system.l2.mem_side_port::system.mem_ctrls.port         1118                       # Packet count per connected requestor and responder (bytes)
system.membus.pkt_count::total                   1118                       # Packet count per connected requestor and responder (bytes)
system.membus.pkt_size_system.l2.mem_side_port::system.mem_ctrls.port        35776                       # Cumulative packet size per connected requestor and responder (bytes)
system.membus.pkt_size::total                   35776                       # Cumulative packet size per connected requestor and responder (bytes)
system.membus.snoops                                0                       # Total snoops (count)
system.membus.snoopTraffic                          0                       # Total snoop traffic (bytes)
system.membus.snoop_fanout::samples               559                       # Request fanout histogram
system.membus.snoop_fanout::mean                    0                       # Request fanout histogram
system.membus.snoop_fanout::stdev                   0                       # Request fanout histogram
system.membus.snoop_fanout::underflows              0      0.00%      0.00% # Request fanout histogram
system.membus.snoop_fanout::0                     559    100.00%    100.00% # Request fanout histogram
system.membus.snoop_fanout::1                       0      0.00%    100.00% # Request fanout histogram
system.membus.snoop_fanout::overflows               0      0.00%    100.00% # Request fanout histogram
system.membus.snoop_fanout::min_value               0                       # Request fanout histogram
system.membus.snoop_fanout::max_value               0                       # Request fanout histogram
system.membus.snoop_fanout::total                 559                       # Request fanout histogram
system.membus.power_state.pwrStateResidencyTicks::UNDEFINED     63958000                       # Cumulative time (in ticks) in various power states
system.membus.reqLayer0.occupancy              559000                       # Layer occupancy (ticks)
system.membus.reqLayer0.utilization               0.9                       # Layer utilization (%)
system.membus.respLayer1.occupancy            2980250                       # Layer occupancy (ticks)
system.membus.respLayer1.utilization              4.7                       # Layer utilization (%)
system.tol2bus.trans_dist::ReadResp               531                       # Transaction distribution
system.tol2bus.trans_dist::WritebackClean          110                       # Transaction distribution
system.tol2bus.trans_dist::CleanEvict               1                       # Transaction distribution
system.tol2bus.trans_dist::ReadExReq               71                       # Transaction distribution
system.tol2bus.trans_dist::ReadExResp              71                       # Transaction distribution
system.tol2bus.trans_dist::ReadCleanReq           411                       # Transaction distribution
system.tol2bus.trans_dist::ReadSharedReq          120                       # Transaction distribution
system.tol2bus.pkt_count_system.cpu.icache.mem_side_port::system.l2.cpu_side_port          932                       # Packet count per connected requestor and responder (bytes)
system.tol2bus.pkt_count_system.cpu.dcache.mem_side_port::system.l2.cpu_side_port          383                       # Packet count per connected requestor and responder (bytes)
system.tol2bus.pkt_count::total                  1315                       # Packet count per connected requestor and responder (bytes)
system.tol2bus.pkt_size_system.cpu.icache.mem_side_port::system.l2.cpu_side_port        33344                       # Cumulative packet size per connected requestor and responder (bytes)
system.tol2bus.pkt_size_system.cpu.dcache.mem_side_port::system.l2.cpu_side_port        12224                       # Cumulative packet size per connected requestor and responder (bytes)
system.tol2bus.pkt_size::total                  45568                       # Cumulative packet size per connected requestor and responder (bytes)
system.tol2bus.snoops                               0                       # Total snoops (count)
system.tol2bus.snoopTraffic                         0                       # Total snoop traffic (bytes)
system.tol2bus.snoop_fanout::samples              602                       # Request fanout histogram
system.tol2bus.snoop_fanout::mean            0.038206                       # Request fanout histogram
system.tol2bus.snoop_fanout::stdev           0.191853                       # Request fanout histogram
system.tol2bus.snoop_fanout::underflows             0      0.00%      0.00% # Request fanout histogram
system.tol2bus.snoop_fanout::0                    579     96.18%     96.18% # Request fanout histogram
system.tol2bus.snoop_fanout::1                     23      3.82%    100.00% # Request fanout histogram
system.tol2bus.snoop_fanout::2                      0      0.00%    100.00% # Request fanout histogram
system.tol2bus.snoop_fanout::overflows              0      0.00%    100.00% # Request fanout histogram
system.tol2bus.snoop_fanout::min_value              0                       # Request fanout histogram
system.tol2bus.snoop_fanout::max_value              1                       # Request fanout histogram
system.tol2bus.snoop_fanout::total                602                       # Request fanout histogram
system.tol2bus.power_state.pwrStateResidencyTicks::UNDEFINED     63958000                       # Cumulative time (in ticks) in various power states
system.tol2bus.reqLayer0.occupancy             933000                       # Layer occupancy (ticks)
system.tol2bus.reqLayer0.utilization              1.5                       # Layer utilization (%)
system.tol2bus.respLayer0.occupancy           1233000                       # Layer occupancy (ticks)
system.tol2bus.respLayer0.utilization             1.9                       # Layer utilization (%)
system.tol2bus.respLayer1.occupancy            574998                       # Layer occupancy (ticks)
system.tol2bus.respLayer1.utilization             0.9                       # Layer utilization (%)
system.voltage_domain.voltage                       1                       # Voltage in Volts

---------- End Simulation Statistics   ----------
