
---------- Begin Simulation Statistics ----------
final_tick                                59150557500                       # Number of ticks from beginning of simulation (restored from checkpoints and never reset)
host_inst_rate                                 193430                       # Simulator instruction rate (inst/s)
host_mem_usage                                 652520                       # Number of bytes of host memory used
host_op_rate                                   211672                       # Simulator op (including micro ops) rate (op/s)
host_seconds                                   516.98                       # Real time elapsed on the host
host_tick_rate                              114414605                       # Simulator tick rate (ticks/s)
sim_freq                                 1000000000000                       # Frequency of simulated ticks
sim_insts                                   100000000                       # Number of instructions simulated
sim_ops                                     109431267                       # Number of ops (including micro ops) simulated
sim_seconds                                  0.059151                       # Number of seconds simulated
sim_ticks                                 59150557500                       # Number of ticks simulated
system.cpu.committedInsts                   100000000                       # Number of instructions committed
system.cpu.committedOps                     109431267                       # Number of ops (including micro ops) committed
system.cpu.cpi                               1.183011                       # CPI: cycles per instruction
system.cpu.discardedOps                        378714                       # Number of ops (including micro ops) which were discarded before commit
system.cpu.idleCycles                         7902866                       # Total number of cycles that the object has spent stopped
system.cpu.ipc                               0.845301                       # IPC: instructions per cycle
system.cpu.numCycles                        118301115                       # number of cpu cycles simulated
system.cpu.numFetchSuspends                         0                       # Number of times Execute suspended instruction fetching
system.cpu.numWorkItemsCompleted                    0                       # number of work items this cpu completed
system.cpu.numWorkItemsStarted                      0                       # number of work items this cpu started
system.cpu.op_class_0::No_OpClass                   0      0.00%      0.00% # Class of committed instruction
system.cpu.op_class_0::IntAlu                72954992     66.67%     66.67% # Class of committed instruction
system.cpu.op_class_0::IntMult                 568364      0.52%     67.19% # Class of committed instruction
system.cpu.op_class_0::IntDiv                       0      0.00%     67.19% # Class of committed instruction
system.cpu.op_class_0::FloatAdd                     0      0.00%     67.19% # Class of committed instruction
system.cpu.op_class_0::FloatCmp                     0      0.00%     67.19% # Class of committed instruction
system.cpu.op_class_0::FloatCvt                     0      0.00%     67.19% # Class of committed instruction
system.cpu.op_class_0::FloatMult                    0      0.00%     67.19% # Class of committed instruction
system.cpu.op_class_0::FloatMultAcc                 0      0.00%     67.19% # Class of committed instruction
system.cpu.op_class_0::FloatDiv                     0      0.00%     67.19% # Class of committed instruction
system.cpu.op_class_0::FloatMisc                    0      0.00%     67.19% # Class of committed instruction
system.cpu.op_class_0::FloatSqrt                    0      0.00%     67.19% # Class of committed instruction
system.cpu.op_class_0::SimdAdd                 241336      0.22%     67.41% # Class of committed instruction
system.cpu.op_class_0::SimdAddAcc                   0      0.00%     67.41% # Class of committed instruction
system.cpu.op_class_0::SimdAlu                 154628      0.14%     67.55% # Class of committed instruction
system.cpu.op_class_0::SimdCmp                 120668      0.11%     67.66% # Class of committed instruction
system.cpu.op_class_0::SimdCvt                      0      0.00%     67.66% # Class of committed instruction
system.cpu.op_class_0::SimdMisc                 44543      0.04%     67.70% # Class of committed instruction
system.cpu.op_class_0::SimdMult                     0      0.00%     67.70% # Class of committed instruction
system.cpu.op_class_0::SimdMultAcc                  0      0.00%     67.70% # Class of committed instruction
system.cpu.op_class_0::SimdShift                    0      0.00%     67.70% # Class of committed instruction
system.cpu.op_class_0::SimdShiftAcc                 0      0.00%     67.70% # Class of committed instruction
system.cpu.op_class_0::SimdDiv                      0      0.00%     67.70% # Class of committed instruction
system.cpu.op_class_0::SimdSqrt                     0      0.00%     67.70% # Class of committed instruction
system.cpu.op_class_0::SimdFloatAdd                 0      0.00%     67.70% # Class of committed instruction
system.cpu.op_class_0::SimdFloatAlu                 0      0.00%     67.70% # Class of committed instruction
system.cpu.op_class_0::SimdFloatCmp                 0      0.00%     67.70% # Class of committed instruction
system.cpu.op_class_0::SimdFloatCvt                 0      0.00%     67.70% # Class of committed instruction
system.cpu.op_class_0::SimdFloatDiv                 0      0.00%     67.70% # Class of committed instruction
system.cpu.op_class_0::SimdFloatMisc           166417      0.15%     67.85% # Class of committed instruction
system.cpu.op_class_0::SimdFloatMult                0      0.00%     67.85% # Class of committed instruction
system.cpu.op_class_0::SimdFloatMultAcc             0      0.00%     67.85% # Class of committed instruction
system.cpu.op_class_0::SimdFloatSqrt                0      0.00%     67.85% # Class of committed instruction
system.cpu.op_class_0::SimdReduceAdd                0      0.00%     67.85% # Class of committed instruction
system.cpu.op_class_0::SimdReduceAlu                0      0.00%     67.85% # Class of committed instruction
system.cpu.op_class_0::SimdReduceCmp                0      0.00%     67.85% # Class of committed instruction
system.cpu.op_class_0::SimdFloatReduceAdd            0      0.00%     67.85% # Class of committed instruction
system.cpu.op_class_0::SimdFloatReduceCmp            0      0.00%     67.85% # Class of committed instruction
system.cpu.op_class_0::SimdAes                      0      0.00%     67.85% # Class of committed instruction
system.cpu.op_class_0::SimdAesMix                   0      0.00%     67.85% # Class of committed instruction
system.cpu.op_class_0::SimdSha1Hash                 0      0.00%     67.85% # Class of committed instruction
system.cpu.op_class_0::SimdSha1Hash2                0      0.00%     67.85% # Class of committed instruction
system.cpu.op_class_0::SimdSha256Hash               0      0.00%     67.85% # Class of committed instruction
system.cpu.op_class_0::SimdSha256Hash2              0      0.00%     67.85% # Class of committed instruction
system.cpu.op_class_0::SimdShaSigma2                0      0.00%     67.85% # Class of committed instruction
system.cpu.op_class_0::SimdShaSigma3                0      0.00%     67.85% # Class of committed instruction
system.cpu.op_class_0::SimdPredAlu                  0      0.00%     67.85% # Class of committed instruction
system.cpu.op_class_0::MemRead               20645985     18.87%     86.72% # Class of committed instruction
system.cpu.op_class_0::MemWrite              14534334     13.28%    100.00% # Class of committed instruction
system.cpu.op_class_0::FloatMemRead                 0      0.00%    100.00% # Class of committed instruction
system.cpu.op_class_0::FloatMemWrite                0      0.00%    100.00% # Class of committed instruction
system.cpu.op_class_0::IprAccess                    0      0.00%    100.00% # Class of committed instruction
system.cpu.op_class_0::InstPrefetch                 0      0.00%    100.00% # Class of committed instruction
system.cpu.op_class_0::total                109431267                       # Class of committed instruction
system.cpu.tickCycles                       110398249                       # Number of cycles that the object actually ticked
system.cpu.workload.numSyscalls                    87                       # Number of system calls
system.membus.snoop_filter.hit_multi_requests            0                       # Number of requests hitting in the snoop filter with multiple (>1) holders of the requested data.
system.membus.snoop_filter.hit_multi_snoops            0                       # Number of snoops hitting in the snoop filter with multiple (>1) holders of the requested data.
system.membus.snoop_filter.hit_single_requests        37844                       # Number of requests hitting in the snoop filter with a single holder of the requested data.
system.membus.snoop_filter.hit_single_snoops            0                       # Number of snoops hitting in the snoop filter with a single holder of the requested data.
system.membus.snoop_filter.tot_requests         84323                       # Total number of requests made to the snoop filter.
system.membus.snoop_filter.tot_snoops               0                       # Total number of snoops made to the snoop filter.
system.tol2bus.snoop_filter.hit_multi_requests         3368                       # Number of requests hitting in the snoop filter with multiple (>1) holders of the requested data.
system.tol2bus.snoop_filter.hit_multi_snoops            8                       # Number of snoops hitting in the snoop filter with multiple (>1) holders of the requested data.
system.tol2bus.snoop_filter.hit_single_requests       217097                       # Number of requests hitting in the snoop filter with a single holder of the requested data.
system.tol2bus.snoop_filter.hit_single_snoops          501                       # Number of snoops hitting in the snoop filter with a single holder of the requested data.
system.tol2bus.snoop_filter.tot_requests       434898                       # Total number of requests made to the snoop filter.
system.tol2bus.snoop_filter.tot_snoops            509                       # Total number of snoops made to the snoop filter.
system.clk_domain.clock                          1000                       # Clock period in ticks
system.cpu.branchPred.lookups                20361741                       # Number of BP lookups
system.cpu.branchPred.condPredicted          16298899                       # Number of conditional branches predicted
system.cpu.branchPred.condIncorrect             53861                       # Number of conditional branches incorrect
system.cpu.branchPred.BTBLookups              8737831                       # Number of BTB lookups
system.cpu.branchPred.BTBHits                 8736424                       # Number of BTB hits
system.cpu.branchPred.BTBHitPct             99.983898                       # BTB Hit Percentage
system.cpu.branchPred.RASUsed                 1050567                       # Number of times the RAS was used to get a target.
system.cpu.branchPred.RASIncorrect                326                       # Number of incorrect RAS predictions.
system.cpu.branchPred.indirectLookups          434531                       # Number of indirect predictor lookups.
system.cpu.branchPred.indirectHits             300027                       # Number of indirect target hits.
system.cpu.branchPred.indirectMisses           134504                       # Number of indirect misses.
system.cpu.branchPred.indirectMispredicted         1043                       # Number of mispredicted indirect branches.
system.cpu.dcache.demand_hits::.cpu.data     35426505                       # number of demand (read+write) hits
system.cpu.dcache.demand_hits::total         35426505                       # number of demand (read+write) hits
system.cpu.dcache.overall_hits::.cpu.data     35429667                       # number of overall hits
system.cpu.dcache.overall_hits::total        35429667                       # number of overall hits
system.cpu.dcache.demand_misses::.cpu.data       259479                       # number of demand (read+write) misses
system.cpu.dcache.demand_misses::total         259479                       # number of demand (read+write) misses
system.cpu.dcache.overall_misses::.cpu.data       259678                       # number of overall misses
system.cpu.dcache.overall_misses::total        259678                       # number of overall misses
system.cpu.dcache.demand_miss_latency::.cpu.data   7492263000                       # number of demand (read+write) miss cycles
system.cpu.dcache.demand_miss_latency::total   7492263000                       # number of demand (read+write) miss cycles
system.cpu.dcache.overall_miss_latency::.cpu.data   7492263000                       # number of overall miss cycles
system.cpu.dcache.overall_miss_latency::total   7492263000                       # number of overall miss cycles
system.cpu.dcache.demand_accesses::.cpu.data     35685984                       # number of demand (read+write) accesses
system.cpu.dcache.demand_accesses::total     35685984                       # number of demand (read+write) accesses
system.cpu.dcache.overall_accesses::.cpu.data     35689345                       # number of overall (read+write) accesses
system.cpu.dcache.overall_accesses::total     35689345                       # number of overall (read+write) accesses
system.cpu.dcache.demand_miss_rate::.cpu.data     0.007271                       # miss rate for demand accesses
system.cpu.dcache.demand_miss_rate::total     0.007271                       # miss rate for demand accesses
system.cpu.dcache.overall_miss_rate::.cpu.data     0.007276                       # miss rate for overall accesses
system.cpu.dcache.overall_miss_rate::total     0.007276                       # miss rate for overall accesses
system.cpu.dcache.demand_avg_miss_latency::.cpu.data 28874.255720                       # average overall miss latency
system.cpu.dcache.demand_avg_miss_latency::total 28874.255720                       # average overall miss latency
system.cpu.dcache.overall_avg_miss_latency::.cpu.data 28852.128405                       # average overall miss latency
system.cpu.dcache.overall_avg_miss_latency::total 28852.128405                       # average overall miss latency
system.cpu.dcache.blocked_cycles::no_mshrs            0                       # number of cycles access was blocked
system.cpu.dcache.blocked_cycles::no_targets            0                       # number of cycles access was blocked
system.cpu.dcache.blocked::no_mshrs                 0                       # number of cycles access was blocked
system.cpu.dcache.blocked::no_targets               0                       # number of cycles access was blocked
system.cpu.dcache.avg_blocked_cycles::no_mshrs          nan                       # average number of cycles each access was blocked
system.cpu.dcache.avg_blocked_cycles::no_targets          nan                       # average number of cycles each access was blocked
system.cpu.dcache.writebacks::.writebacks        97591                       # number of writebacks
system.cpu.dcache.writebacks::total             97591                       # number of writebacks
system.cpu.dcache.demand_mshr_hits::.cpu.data        42686                       # number of demand (read+write) MSHR hits
system.cpu.dcache.demand_mshr_hits::total        42686                       # number of demand (read+write) MSHR hits
system.cpu.dcache.overall_mshr_hits::.cpu.data        42686                       # number of overall MSHR hits
system.cpu.dcache.overall_mshr_hits::total        42686                       # number of overall MSHR hits
system.cpu.dcache.demand_mshr_misses::.cpu.data       216793                       # number of demand (read+write) MSHR misses
system.cpu.dcache.demand_mshr_misses::total       216793                       # number of demand (read+write) MSHR misses
system.cpu.dcache.overall_mshr_misses::.cpu.data       216987                       # number of overall MSHR misses
system.cpu.dcache.overall_mshr_misses::total       216987                       # number of overall MSHR misses
system.cpu.dcache.demand_mshr_miss_latency::.cpu.data   5906673000                       # number of demand (read+write) MSHR miss cycles
system.cpu.dcache.demand_mshr_miss_latency::total   5906673000                       # number of demand (read+write) MSHR miss cycles
system.cpu.dcache.overall_mshr_miss_latency::.cpu.data   5910354500                       # number of overall MSHR miss cycles
system.cpu.dcache.overall_mshr_miss_latency::total   5910354500                       # number of overall MSHR miss cycles
system.cpu.dcache.demand_mshr_miss_rate::.cpu.data     0.006075                       # mshr miss rate for demand accesses
system.cpu.dcache.demand_mshr_miss_rate::total     0.006075                       # mshr miss rate for demand accesses
system.cpu.dcache.overall_mshr_miss_rate::.cpu.data     0.006080                       # mshr miss rate for overall accesses
system.cpu.dcache.overall_mshr_miss_rate::total     0.006080                       # mshr miss rate for overall accesses
system.cpu.dcache.demand_avg_mshr_miss_latency::.cpu.data 27245.681364                       # average overall mshr miss latency
system.cpu.dcache.demand_avg_mshr_miss_latency::total 27245.681364                       # average overall mshr miss latency
system.cpu.dcache.overall_avg_mshr_miss_latency::.cpu.data 27238.288469                       # average overall mshr miss latency
system.cpu.dcache.overall_avg_mshr_miss_latency::total 27238.288469                       # average overall mshr miss latency
system.cpu.dcache.replacements                 216779                       # number of replacements
system.cpu.dcache.ReadReq_hits::.cpu.data     21258335                       # number of ReadReq hits
system.cpu.dcache.ReadReq_hits::total        21258335                       # number of ReadReq hits
system.cpu.dcache.ReadReq_misses::.cpu.data       173408                       # number of ReadReq misses
system.cpu.dcache.ReadReq_misses::total        173408                       # number of ReadReq misses
system.cpu.dcache.ReadReq_miss_latency::.cpu.data   2895432000                       # number of ReadReq miss cycles
system.cpu.dcache.ReadReq_miss_latency::total   2895432000                       # number of ReadReq miss cycles
system.cpu.dcache.ReadReq_accesses::.cpu.data     21431743                       # number of ReadReq accesses(hits+misses)
system.cpu.dcache.ReadReq_accesses::total     21431743                       # number of ReadReq accesses(hits+misses)
system.cpu.dcache.ReadReq_miss_rate::.cpu.data     0.008091                       # miss rate for ReadReq accesses
system.cpu.dcache.ReadReq_miss_rate::total     0.008091                       # miss rate for ReadReq accesses
system.cpu.dcache.ReadReq_avg_miss_latency::.cpu.data 16697.222735                       # average ReadReq miss latency
system.cpu.dcache.ReadReq_avg_miss_latency::total 16697.222735                       # average ReadReq miss latency
system.cpu.dcache.ReadReq_mshr_hits::.cpu.data        12890                       # number of ReadReq MSHR hits
system.cpu.dcache.ReadReq_mshr_hits::total        12890                       # number of ReadReq MSHR hits
system.cpu.dcache.ReadReq_mshr_misses::.cpu.data       160518                       # number of ReadReq MSHR misses
system.cpu.dcache.ReadReq_mshr_misses::total       160518                       # number of ReadReq MSHR misses
system.cpu.dcache.ReadReq_mshr_miss_latency::.cpu.data   2536912500                       # number of ReadReq MSHR miss cycles
system.cpu.dcache.ReadReq_mshr_miss_latency::total   2536912500                       # number of ReadReq MSHR miss cycles
system.cpu.dcache.ReadReq_mshr_miss_rate::.cpu.data     0.007490                       # mshr miss rate for ReadReq accesses
system.cpu.dcache.ReadReq_mshr_miss_rate::total     0.007490                       # mshr miss rate for ReadReq accesses
system.cpu.dcache.ReadReq_avg_mshr_miss_latency::.cpu.data 15804.535940                       # average ReadReq mshr miss latency
system.cpu.dcache.ReadReq_avg_mshr_miss_latency::total 15804.535940                       # average ReadReq mshr miss latency
system.cpu.dcache.WriteReq_hits::.cpu.data     14168170                       # number of WriteReq hits
system.cpu.dcache.WriteReq_hits::total       14168170                       # number of WriteReq hits
system.cpu.dcache.WriteReq_misses::.cpu.data        86071                       # number of WriteReq misses
system.cpu.dcache.WriteReq_misses::total        86071                       # number of WriteReq misses
system.cpu.dcache.WriteReq_miss_latency::.cpu.data   4596831000                       # number of WriteReq miss cycles
system.cpu.dcache.WriteReq_miss_latency::total   4596831000                       # number of WriteReq miss cycles
system.cpu.dcache.WriteReq_accesses::.cpu.data     14254241                       # number of WriteReq accesses(hits+misses)
system.cpu.dcache.WriteReq_accesses::total     14254241                       # number of WriteReq accesses(hits+misses)
system.cpu.dcache.WriteReq_miss_rate::.cpu.data     0.006038                       # miss rate for WriteReq accesses
system.cpu.dcache.WriteReq_miss_rate::total     0.006038                       # miss rate for WriteReq accesses
system.cpu.dcache.WriteReq_avg_miss_latency::.cpu.data 53407.431074                       # average WriteReq miss latency
system.cpu.dcache.WriteReq_avg_miss_latency::total 53407.431074                       # average WriteReq miss latency
system.cpu.dcache.WriteReq_mshr_hits::.cpu.data        29796                       # number of WriteReq MSHR hits
system.cpu.dcache.WriteReq_mshr_hits::total        29796                       # number of WriteReq MSHR hits
system.cpu.dcache.WriteReq_mshr_misses::.cpu.data        56275                       # number of WriteReq MSHR misses
system.cpu.dcache.WriteReq_mshr_misses::total        56275                       # number of WriteReq MSHR misses
system.cpu.dcache.WriteReq_mshr_miss_latency::.cpu.data   3369760500                       # number of WriteReq MSHR miss cycles
system.cpu.dcache.WriteReq_mshr_miss_latency::total   3369760500                       # number of WriteReq MSHR miss cycles
system.cpu.dcache.WriteReq_mshr_miss_rate::.cpu.data     0.003948                       # mshr miss rate for WriteReq accesses
system.cpu.dcache.WriteReq_mshr_miss_rate::total     0.003948                       # mshr miss rate for WriteReq accesses
system.cpu.dcache.WriteReq_avg_mshr_miss_latency::.cpu.data 59880.239893                       # average WriteReq mshr miss latency
system.cpu.dcache.WriteReq_avg_mshr_miss_latency::total 59880.239893                       # average WriteReq mshr miss latency
system.cpu.dcache.SoftPFReq_hits::.cpu.data         3162                       # number of SoftPFReq hits
system.cpu.dcache.SoftPFReq_hits::total          3162                       # number of SoftPFReq hits
system.cpu.dcache.SoftPFReq_misses::.cpu.data          199                       # number of SoftPFReq misses
system.cpu.dcache.SoftPFReq_misses::total          199                       # number of SoftPFReq misses
system.cpu.dcache.SoftPFReq_accesses::.cpu.data         3361                       # number of SoftPFReq accesses(hits+misses)
system.cpu.dcache.SoftPFReq_accesses::total         3361                       # number of SoftPFReq accesses(hits+misses)
system.cpu.dcache.SoftPFReq_miss_rate::.cpu.data     0.059209                       # miss rate for SoftPFReq accesses
system.cpu.dcache.SoftPFReq_miss_rate::total     0.059209                       # miss rate for SoftPFReq accesses
system.cpu.dcache.SoftPFReq_mshr_misses::.cpu.data          194                       # number of SoftPFReq MSHR misses
system.cpu.dcache.SoftPFReq_mshr_misses::total          194                       # number of SoftPFReq MSHR misses
system.cpu.dcache.SoftPFReq_mshr_miss_latency::.cpu.data      3681500                       # number of SoftPFReq MSHR miss cycles
system.cpu.dcache.SoftPFReq_mshr_miss_latency::total      3681500                       # number of SoftPFReq MSHR miss cycles
system.cpu.dcache.SoftPFReq_mshr_miss_rate::.cpu.data     0.057721                       # mshr miss rate for SoftPFReq accesses
system.cpu.dcache.SoftPFReq_mshr_miss_rate::total     0.057721                       # mshr miss rate for SoftPFReq accesses
system.cpu.dcache.SoftPFReq_avg_mshr_miss_latency::.cpu.data 18976.804124                       # average SoftPFReq mshr miss latency
system.cpu.dcache.SoftPFReq_avg_mshr_miss_latency::total 18976.804124                       # average SoftPFReq mshr miss latency
system.cpu.dcache.LoadLockedReq_hits::.cpu.data        89075                       # number of LoadLockedReq hits
system.cpu.dcache.LoadLockedReq_hits::total        89075                       # number of LoadLockedReq hits
system.cpu.dcache.LoadLockedReq_misses::.cpu.data           48                       # number of LoadLockedReq misses
system.cpu.dcache.LoadLockedReq_misses::total           48                       # number of LoadLockedReq misses
system.cpu.dcache.LoadLockedReq_miss_latency::.cpu.data      1326000                       # number of LoadLockedReq miss cycles
system.cpu.dcache.LoadLockedReq_miss_latency::total      1326000                       # number of LoadLockedReq miss cycles
system.cpu.dcache.LoadLockedReq_accesses::.cpu.data        89123                       # number of LoadLockedReq accesses(hits+misses)
system.cpu.dcache.LoadLockedReq_accesses::total        89123                       # number of LoadLockedReq accesses(hits+misses)
system.cpu.dcache.LoadLockedReq_miss_rate::.cpu.data     0.000539                       # miss rate for LoadLockedReq accesses
system.cpu.dcache.LoadLockedReq_miss_rate::total     0.000539                       # miss rate for LoadLockedReq accesses
system.cpu.dcache.LoadLockedReq_avg_miss_latency::.cpu.data        27625                       # average LoadLockedReq miss latency
system.cpu.dcache.LoadLockedReq_avg_miss_latency::total        27625                       # average LoadLockedReq miss latency
system.cpu.dcache.LoadLockedReq_mshr_misses::.cpu.data           48                       # number of LoadLockedReq MSHR misses
system.cpu.dcache.LoadLockedReq_mshr_misses::total           48                       # number of LoadLockedReq MSHR misses
system.cpu.dcache.LoadLockedReq_mshr_miss_latency::.cpu.data      1278000                       # number of LoadLockedReq MSHR miss cycles
system.cpu.dcache.LoadLockedReq_mshr_miss_latency::total      1278000                       # number of LoadLockedReq MSHR miss cycles
system.cpu.dcache.LoadLockedReq_mshr_miss_rate::.cpu.data     0.000539                       # mshr miss rate for LoadLockedReq accesses
system.cpu.dcache.LoadLockedReq_mshr_miss_rate::total     0.000539                       # mshr miss rate for LoadLockedReq accesses
system.cpu.dcache.LoadLockedReq_avg_mshr_miss_latency::.cpu.data        26625                       # average LoadLockedReq mshr miss latency
system.cpu.dcache.LoadLockedReq_avg_mshr_miss_latency::total        26625                       # average LoadLockedReq mshr miss latency
system.cpu.dcache.StoreCondReq_hits::.cpu.data        89080                       # number of StoreCondReq hits
system.cpu.dcache.StoreCondReq_hits::total        89080                       # number of StoreCondReq hits
system.cpu.dcache.StoreCondReq_accesses::.cpu.data        89080                       # number of StoreCondReq accesses(hits+misses)
system.cpu.dcache.StoreCondReq_accesses::total        89080                       # number of StoreCondReq accesses(hits+misses)
system.cpu.dcache.power_state.pwrStateResidencyTicks::UNDEFINED  59150557500                       # Cumulative time (in ticks) in various power states
system.cpu.dcache.tags.tagsinuse           255.706467                       # Cycle average of tags in use
system.cpu.dcache.tags.total_refs            35824857                       # Total number of references to valid blocks.
system.cpu.dcache.tags.sampled_refs            217035                       # Sample count of references to valid blocks.
system.cpu.dcache.tags.avg_refs            165.064884                       # Average number of references to valid blocks.
system.cpu.dcache.tags.warmup_cycle            176500                       # Cycle when the warmup percentage was hit.
system.cpu.dcache.tags.occ_blocks::.cpu.data   255.706467                       # Average occupied blocks per requestor
system.cpu.dcache.tags.occ_percent::.cpu.data     0.998853                       # Average percentage of cache occupancy
system.cpu.dcache.tags.occ_percent::total     0.998853                       # Average percentage of cache occupancy
system.cpu.dcache.tags.occ_task_id_blocks::1024          256                       # Occupied blocks per task id
system.cpu.dcache.tags.age_task_id_blocks_1024::0           11                       # Occupied blocks per task id
system.cpu.dcache.tags.age_task_id_blocks_1024::1           76                       # Occupied blocks per task id
system.cpu.dcache.tags.age_task_id_blocks_1024::2          169                       # Occupied blocks per task id
system.cpu.dcache.tags.occ_task_id_percent::1024            1                       # Percentage of cache occupancy per task id
system.cpu.dcache.tags.tag_accesses          36084583                       # Number of tag accesses
system.cpu.dcache.tags.data_accesses         36084583                       # Number of data accesses
system.cpu.dcache.tags.power_state.pwrStateResidencyTicks::UNDEFINED  59150557500                       # Cumulative time (in ticks) in various power states
system.cpu.dtb.instHits                             0                       # ITB inst hits
system.cpu.dtb.instMisses                           0                       # ITB inst misses
system.cpu.dtb.readHits                             0                       # DTB read hits
system.cpu.dtb.readMisses                           0                       # DTB read misses
system.cpu.dtb.writeHits                            0                       # DTB write hits
system.cpu.dtb.writeMisses                          0                       # DTB write misses
system.cpu.dtb.inserts                              0                       # Number of times an entry is inserted into the TLB
system.cpu.dtb.flushTlb                             0                       # Number of times complete TLB was flushed
system.cpu.dtb.flushTlbMva                          0                       # Number of times TLB was flushed by MVA
system.cpu.dtb.flushTlbMvaAsid                      0                       # Number of times TLB was flushed by MVA & ASID
system.cpu.dtb.flushTlbAsid                         0                       # Number of times TLB was flushed by ASID
system.cpu.dtb.flushedEntries                       0                       # Number of entries that have been flushed from TLB
system.cpu.dtb.alignFaults                          0                       # Number of TLB faults due to alignment restrictions
system.cpu.dtb.prefetchFaults                       0                       # Number of TLB faults due to prefetch
system.cpu.dtb.domainFaults                         0                       # Number of TLB faults due to domain restrictions
system.cpu.dtb.permsFaults                          0                       # Number of TLB faults due to permissions restrictions
system.cpu.dtb.readAccesses                         0                       # DTB read accesses
system.cpu.dtb.writeAccesses                        0                       # DTB write accesses
system.cpu.dtb.instAccesses                         0                       # ITB inst accesses
system.cpu.dtb.hits                                 0                       # Total TLB (inst and data) hits
system.cpu.dtb.misses                               0                       # Total TLB (inst and data) misses
system.cpu.dtb.accesses                             0                       # Total TLB (inst and data) accesses
system.cpu.dtb.stage2_mmu.stage2_tlb.instHits            0                       # ITB inst hits
system.cpu.dtb.stage2_mmu.stage2_tlb.instMisses            0                       # ITB inst misses
system.cpu.dtb.stage2_mmu.stage2_tlb.readHits            0                       # DTB read hits
system.cpu.dtb.stage2_mmu.stage2_tlb.readMisses            0                       # DTB read misses
system.cpu.dtb.stage2_mmu.stage2_tlb.writeHits            0                       # DTB write hits
system.cpu.dtb.stage2_mmu.stage2_tlb.writeMisses            0                       # DTB write misses
system.cpu.dtb.stage2_mmu.stage2_tlb.inserts            0                       # Number of times an entry is inserted into the TLB
system.cpu.dtb.stage2_mmu.stage2_tlb.flushTlb            0                       # Number of times complete TLB was flushed
system.cpu.dtb.stage2_mmu.stage2_tlb.flushTlbMva            0                       # Number of times TLB was flushed by MVA
system.cpu.dtb.stage2_mmu.stage2_tlb.flushTlbMvaAsid            0                       # Number of times TLB was flushed by MVA & ASID
system.cpu.dtb.stage2_mmu.stage2_tlb.flushTlbAsid            0                       # Number of times TLB was flushed by ASID
system.cpu.dtb.stage2_mmu.stage2_tlb.flushedEntries            0                       # Number of entries that have been flushed from TLB
system.cpu.dtb.stage2_mmu.stage2_tlb.alignFaults            0                       # Number of TLB faults due to alignment restrictions
system.cpu.dtb.stage2_mmu.stage2_tlb.prefetchFaults            0                       # Number of TLB faults due to prefetch
system.cpu.dtb.stage2_mmu.stage2_tlb.domainFaults            0                       # Number of TLB faults due to domain restrictions
system.cpu.dtb.stage2_mmu.stage2_tlb.permsFaults            0                       # Number of TLB faults due to permissions restrictions
system.cpu.dtb.stage2_mmu.stage2_tlb.readAccesses            0                       # DTB read accesses
system.cpu.dtb.stage2_mmu.stage2_tlb.writeAccesses            0                       # DTB write accesses
system.cpu.dtb.stage2_mmu.stage2_tlb.instAccesses            0                       # ITB inst accesses
system.cpu.dtb.stage2_mmu.stage2_tlb.hits            0                       # Total TLB (inst and data) hits
system.cpu.dtb.stage2_mmu.stage2_tlb.misses            0                       # Total TLB (inst and data) misses
system.cpu.dtb.stage2_mmu.stage2_tlb.accesses            0                       # Total TLB (inst and data) accesses
system.cpu.dtb.stage2_mmu.stage2_tlb.walker.walks            0                       # Table walker walks requested
system.cpu.dtb.stage2_mmu.stage2_tlb.walker.requestOrigin_Requested::Data            0                       # Table walker requests started/completed, data/inst
system.cpu.dtb.stage2_mmu.stage2_tlb.walker.requestOrigin_Requested::Inst            0                       # Table walker requests started/completed, data/inst
system.cpu.dtb.stage2_mmu.stage2_tlb.walker.requestOrigin_Requested::total            0                       # Table walker requests started/completed, data/inst
system.cpu.dtb.stage2_mmu.stage2_tlb.walker.requestOrigin_Completed::Data            0                       # Table walker requests started/completed, data/inst
system.cpu.dtb.stage2_mmu.stage2_tlb.walker.requestOrigin_Completed::Inst            0                       # Table walker requests started/completed, data/inst
system.cpu.dtb.stage2_mmu.stage2_tlb.walker.requestOrigin_Completed::total            0                       # Table walker requests started/completed, data/inst
system.cpu.dtb.stage2_mmu.stage2_tlb.walker.requestOrigin::total            0                       # Table walker requests started/completed, data/inst
system.cpu.dtb.stage2_mmu.stage2_tlb.walker.power_state.pwrStateResidencyTicks::UNDEFINED  59150557500                       # Cumulative time (in ticks) in various power states
system.cpu.dtb.walker.walks                         0                       # Table walker walks requested
system.cpu.dtb.walker.requestOrigin_Requested::Data            0                       # Table walker requests started/completed, data/inst
system.cpu.dtb.walker.requestOrigin_Requested::Inst            0                       # Table walker requests started/completed, data/inst
system.cpu.dtb.walker.requestOrigin_Requested::total            0                       # Table walker requests started/completed, data/inst
system.cpu.dtb.walker.requestOrigin_Completed::Data            0                       # Table walker requests started/completed, data/inst
system.cpu.dtb.walker.requestOrigin_Completed::Inst            0                       # Table walker requests started/completed, data/inst
system.cpu.dtb.walker.requestOrigin_Completed::total            0                       # Table walker requests started/completed, data/inst
system.cpu.dtb.walker.requestOrigin::total            0                       # Table walker requests started/completed, data/inst
system.cpu.dtb.walker.power_state.pwrStateResidencyTicks::UNDEFINED  59150557500                       # Cumulative time (in ticks) in various power states
system.cpu.fetch2.intInstructions            49240514                       # Number of integer instructions successfully decoded
system.cpu.fetch2.fpInstructions                    0                       # Number of floating point instructions successfully decoded
system.cpu.fetch2.vecInstructions                   0                       # Number of SIMD instructions successfully decoded
system.cpu.fetch2.loadInstructions           17106862                       # Number of memory load instructions successfully decoded
system.cpu.fetch2.storeInstructions           9764331                       # Number of memory store instructions successfully decoded
system.cpu.fetch2.amoInstructions                   0                       # Number of memory atomic instructions successfully decoded
system.cpu.icache.demand_hits::.cpu.inst     28375535                       # number of demand (read+write) hits
system.cpu.icache.demand_hits::total         28375535                       # number of demand (read+write) hits
system.cpu.icache.overall_hits::.cpu.inst     28375535                       # number of overall hits
system.cpu.icache.overall_hits::total        28375535                       # number of overall hits
system.cpu.icache.demand_misses::.cpu.inst          770                       # number of demand (read+write) misses
system.cpu.icache.demand_misses::total            770                       # number of demand (read+write) misses
system.cpu.icache.overall_misses::.cpu.inst          770                       # number of overall misses
system.cpu.icache.overall_misses::total           770                       # number of overall misses
system.cpu.icache.demand_miss_latency::.cpu.inst     44419000                       # number of demand (read+write) miss cycles
system.cpu.icache.demand_miss_latency::total     44419000                       # number of demand (read+write) miss cycles
system.cpu.icache.overall_miss_latency::.cpu.inst     44419000                       # number of overall miss cycles
system.cpu.icache.overall_miss_latency::total     44419000                       # number of overall miss cycles
system.cpu.icache.demand_accesses::.cpu.inst     28376305                       # number of demand (read+write) accesses
system.cpu.icache.demand_accesses::total     28376305                       # number of demand (read+write) accesses
system.cpu.icache.overall_accesses::.cpu.inst     28376305                       # number of overall (read+write) accesses
system.cpu.icache.overall_accesses::total     28376305                       # number of overall (read+write) accesses
system.cpu.icache.demand_miss_rate::.cpu.inst     0.000027                       # miss rate for demand accesses
system.cpu.icache.demand_miss_rate::total     0.000027                       # miss rate for demand accesses
system.cpu.icache.overall_miss_rate::.cpu.inst     0.000027                       # miss rate for overall accesses
system.cpu.icache.overall_miss_rate::total     0.000027                       # miss rate for overall accesses
system.cpu.icache.demand_avg_miss_latency::.cpu.inst 57687.012987                       # average overall miss latency
system.cpu.icache.demand_avg_miss_latency::total 57687.012987                       # average overall miss latency
system.cpu.icache.overall_avg_miss_latency::.cpu.inst 57687.012987                       # average overall miss latency
system.cpu.icache.overall_avg_miss_latency::total 57687.012987                       # average overall miss latency
system.cpu.icache.blocked_cycles::no_mshrs            0                       # number of cycles access was blocked
system.cpu.icache.blocked_cycles::no_targets            0                       # number of cycles access was blocked
system.cpu.icache.blocked::no_mshrs                 0                       # number of cycles access was blocked
system.cpu.icache.blocked::no_targets               0                       # number of cycles access was blocked
system.cpu.icache.avg_blocked_cycles::no_mshrs          nan                       # average number of cycles each access was blocked
system.cpu.icache.avg_blocked_cycles::no_targets          nan                       # average number of cycles each access was blocked
system.cpu.icache.writebacks::.writebacks          314                       # number of writebacks
system.cpu.icache.writebacks::total               314                       # number of writebacks
system.cpu.icache.demand_mshr_misses::.cpu.inst          770                       # number of demand (read+write) MSHR misses
system.cpu.icache.demand_mshr_misses::total          770                       # number of demand (read+write) MSHR misses
system.cpu.icache.overall_mshr_misses::.cpu.inst          770                       # number of overall MSHR misses
system.cpu.icache.overall_mshr_misses::total          770                       # number of overall MSHR misses
system.cpu.icache.demand_mshr_miss_latency::.cpu.inst     43649000                       # number of demand (read+write) MSHR miss cycles
system.cpu.icache.demand_mshr_miss_latency::total     43649000                       # number of demand (read+write) MSHR miss cycles
system.cpu.icache.overall_mshr_miss_latency::.cpu.inst     43649000                       # number of overall MSHR miss cycles
system.cpu.icache.overall_mshr_miss_latency::total     43649000                       # number of overall MSHR miss cycles
system.cpu.icache.demand_mshr_miss_rate::.cpu.inst     0.000027                       # mshr miss rate for demand accesses
system.cpu.icache.demand_mshr_miss_rate::total     0.000027                       # mshr miss rate for demand accesses
system.cpu.icache.overall_mshr_miss_rate::.cpu.inst     0.000027                       # mshr miss rate for overall accesses
system.cpu.icache.overall_mshr_miss_rate::total     0.000027                       # mshr miss rate for overall accesses
system.cpu.icache.demand_avg_mshr_miss_latency::.cpu.inst 56687.012987                       # average overall mshr miss latency
system.cpu.icache.demand_avg_mshr_miss_latency::total 56687.012987                       # average overall mshr miss latency
system.cpu.icache.overall_avg_mshr_miss_latency::.cpu.inst 56687.012987                       # average overall mshr miss latency
system.cpu.icache.overall_avg_mshr_miss_latency::total 56687.012987                       # average overall mshr miss latency
system.cpu.icache.replacements                    314                       # number of replacements
system.cpu.icache.ReadReq_hits::.cpu.inst     28375535                       # number of ReadReq hits
system.cpu.icache.ReadReq_hits::total        28375535                       # number of ReadReq hits
system.cpu.icache.ReadReq_misses::.cpu.inst          770                       # number of ReadReq misses
system.cpu.icache.ReadReq_misses::total           770                       # number of ReadReq misses
system.cpu.icache.ReadReq_miss_latency::.cpu.inst     44419000                       # number of ReadReq miss cycles
system.cpu.icache.ReadReq_miss_latency::total     44419000                       # number of ReadReq miss cycles
system.cpu.icache.ReadReq_accesses::.cpu.inst     28376305                       # number of ReadReq accesses(hits+misses)
system.cpu.icache.ReadReq_accesses::total     28376305                       # number of ReadReq accesses(hits+misses)
system.cpu.icache.ReadReq_miss_rate::.cpu.inst     0.000027                       # miss rate for ReadReq accesses
system.cpu.icache.ReadReq_miss_rate::total     0.000027                       # miss rate for ReadReq accesses
system.cpu.icache.ReadReq_avg_miss_latency::.cpu.inst 57687.012987                       # average ReadReq miss latency
system.cpu.icache.ReadReq_avg_miss_latency::total 57687.012987                       # average ReadReq miss latency
system.cpu.icache.ReadReq_mshr_misses::.cpu.inst          770                       # number of ReadReq MSHR misses
system.cpu.icache.ReadReq_mshr_misses::total          770                       # number of ReadReq MSHR misses
system.cpu.icache.ReadReq_mshr_miss_latency::.cpu.inst     43649000                       # number of ReadReq MSHR miss cycles
system.cpu.icache.ReadReq_mshr_miss_latency::total     43649000                       # number of ReadReq MSHR miss cycles
system.cpu.icache.ReadReq_mshr_miss_rate::.cpu.inst     0.000027                       # mshr miss rate for ReadReq accesses
system.cpu.icache.ReadReq_mshr_miss_rate::total     0.000027                       # mshr miss rate for ReadReq accesses
system.cpu.icache.ReadReq_avg_mshr_miss_latency::.cpu.inst 56687.012987                       # average ReadReq mshr miss latency
system.cpu.icache.ReadReq_avg_mshr_miss_latency::total 56687.012987                       # average ReadReq mshr miss latency
system.cpu.icache.power_state.pwrStateResidencyTicks::UNDEFINED  59150557500                       # Cumulative time (in ticks) in various power states
system.cpu.icache.tags.tagsinuse           455.243679                       # Cycle average of tags in use
system.cpu.icache.tags.total_refs            28376305                       # Total number of references to valid blocks.
system.cpu.icache.tags.sampled_refs               770                       # Sample count of references to valid blocks.
system.cpu.icache.tags.avg_refs          36852.344156                       # Average number of references to valid blocks.
system.cpu.icache.tags.warmup_cycle             87500                       # Cycle when the warmup percentage was hit.
system.cpu.icache.tags.occ_blocks::.cpu.inst   455.243679                       # Average occupied blocks per requestor
system.cpu.icache.tags.occ_percent::.cpu.inst     0.444574                       # Average percentage of cache occupancy
system.cpu.icache.tags.occ_percent::total     0.444574                       # Average percentage of cache occupancy
system.cpu.icache.tags.occ_task_id_blocks::1024          456                       # Occupied blocks per task id
system.cpu.icache.tags.age_task_id_blocks_1024::2            1                       # Occupied blocks per task id
system.cpu.icache.tags.age_task_id_blocks_1024::4          455                       # Occupied blocks per task id
system.cpu.icache.tags.occ_task_id_percent::1024     0.445312                       # Percentage of cache occupancy per task id
system.cpu.icache.tags.tag_accesses          28377075                       # Number of tag accesses
system.cpu.icache.tags.data_accesses         28377075                       # Number of data accesses
system.cpu.icache.tags.power_state.pwrStateResidencyTicks::UNDEFINED  59150557500                       # Cumulative time (in ticks) in various power states
system.cpu.itb.instHits                             0                       # ITB inst hits
system.cpu.itb.instMisses                           0                       # ITB inst misses
system.cpu.itb.readHits                             0                       # DTB read hits
system.cpu.itb.readMisses                           0                       # DTB read misses
system.cpu.itb.writeHits                            0                       # DTB write hits
system.cpu.itb.writeMisses                          0                       # DTB write misses
system.cpu.itb.inserts                              0                       # Number of times an entry is inserted into the TLB
system.cpu.itb.flushTlb                             0                       # Number of times complete TLB was flushed
system.cpu.itb.flushTlbMva                          0                       # Number of times TLB was flushed by MVA
system.cpu.itb.flushTlbMvaAsid                      0                       # Number of times TLB was flushed by MVA & ASID
system.cpu.itb.flushTlbAsid                         0                       # Number of times TLB was flushed by ASID
system.cpu.itb.flushedEntries                       0                       # Number of entries that have been flushed from TLB
system.cpu.itb.alignFaults                          0                       # Number of TLB faults due to alignment restrictions
system.cpu.itb.prefetchFaults                       0                       # Number of TLB faults due to prefetch
system.cpu.itb.domainFaults                         0                       # Number of TLB faults due to domain restrictions
system.cpu.itb.permsFaults                          0                       # Number of TLB faults due to permissions restrictions
system.cpu.itb.readAccesses                         0                       # DTB read accesses
system.cpu.itb.writeAccesses                        0                       # DTB write accesses
system.cpu.itb.instAccesses                         0                       # ITB inst accesses
system.cpu.itb.hits                                 0                       # Total TLB (inst and data) hits
system.cpu.itb.misses                               0                       # Total TLB (inst and data) misses
system.cpu.itb.accesses                             0                       # Total TLB (inst and data) accesses
system.cpu.itb.stage2_mmu.stage2_tlb.instHits            0                       # ITB inst hits
system.cpu.itb.stage2_mmu.stage2_tlb.instMisses            0                       # ITB inst misses
system.cpu.itb.stage2_mmu.stage2_tlb.readHits            0                       # DTB read hits
system.cpu.itb.stage2_mmu.stage2_tlb.readMisses            0                       # DTB read misses
system.cpu.itb.stage2_mmu.stage2_tlb.writeHits            0                       # DTB write hits
system.cpu.itb.stage2_mmu.stage2_tlb.writeMisses            0                       # DTB write misses
system.cpu.itb.stage2_mmu.stage2_tlb.inserts            0                       # Number of times an entry is inserted into the TLB
system.cpu.itb.stage2_mmu.stage2_tlb.flushTlb            0                       # Number of times complete TLB was flushed
system.cpu.itb.stage2_mmu.stage2_tlb.flushTlbMva            0                       # Number of times TLB was flushed by MVA
system.cpu.itb.stage2_mmu.stage2_tlb.flushTlbMvaAsid            0                       # Number of times TLB was flushed by MVA & ASID
system.cpu.itb.stage2_mmu.stage2_tlb.flushTlbAsid            0                       # Number of times TLB was flushed by ASID
system.cpu.itb.stage2_mmu.stage2_tlb.flushedEntries            0                       # Number of entries that have been flushed from TLB
system.cpu.itb.stage2_mmu.stage2_tlb.alignFaults            0                       # Number of TLB faults due to alignment restrictions
system.cpu.itb.stage2_mmu.stage2_tlb.prefetchFaults            0                       # Number of TLB faults due to prefetch
system.cpu.itb.stage2_mmu.stage2_tlb.domainFaults            0                       # Number of TLB faults due to domain restrictions
system.cpu.itb.stage2_mmu.stage2_tlb.permsFaults            0                       # Number of TLB faults due to permissions restrictions
system.cpu.itb.stage2_mmu.stage2_tlb.readAccesses            0                       # DTB read accesses
system.cpu.itb.stage2_mmu.stage2_tlb.writeAccesses            0                       # DTB write accesses
system.cpu.itb.stage2_mmu.stage2_tlb.instAccesses            0                       # ITB inst accesses
system.cpu.itb.stage2_mmu.stage2_tlb.hits            0                       # Total TLB (inst and data) hits
system.cpu.itb.stage2_mmu.stage2_tlb.misses            0                       # Total TLB (inst and data) misses
system.cpu.itb.stage2_mmu.stage2_tlb.accesses            0                       # Total TLB (inst and data) accesses
system.cpu.itb.stage2_mmu.stage2_tlb.walker.walks            0                       # Table walker walks requested
system.cpu.itb.stage2_mmu.stage2_tlb.walker.requestOrigin_Requested::Data            0                       # Table walker requests started/completed, data/inst
system.cpu.itb.stage2_mmu.stage2_tlb.walker.requestOrigin_Requested::Inst            0                       # Table walker requests started/completed, data/inst
system.cpu.itb.stage2_mmu.stage2_tlb.walker.requestOrigin_Requested::total            0                       # Table walker requests started/completed, data/inst
system.cpu.itb.stage2_mmu.stage2_tlb.walker.requestOrigin_Completed::Data            0                       # Table walker requests started/completed, data/inst
system.cpu.itb.stage2_mmu.stage2_tlb.walker.requestOrigin_Completed::Inst            0                       # Table walker requests started/completed, data/inst
system.cpu.itb.stage2_mmu.stage2_tlb.walker.requestOrigin_Completed::total            0                       # Table walker requests started/completed, data/inst
system.cpu.itb.stage2_mmu.stage2_tlb.walker.requestOrigin::total            0                       # Table walker requests started/completed, data/inst
system.cpu.itb.stage2_mmu.stage2_tlb.walker.power_state.pwrStateResidencyTicks::UNDEFINED  59150557500                       # Cumulative time (in ticks) in various power states
system.cpu.itb.walker.walks                         0                       # Table walker walks requested
system.cpu.itb.walker.requestOrigin_Requested::Data            0                       # Table walker requests started/completed, data/inst
system.cpu.itb.walker.requestOrigin_Requested::Inst            0                       # Table walker requests started/completed, data/inst
system.cpu.itb.walker.requestOrigin_Requested::total            0                       # Table walker requests started/completed, data/inst
system.cpu.itb.walker.requestOrigin_Completed::Data            0                       # Table walker requests started/completed, data/inst
system.cpu.itb.walker.requestOrigin_Completed::Inst            0                       # Table walker requests started/completed, data/inst
system.cpu.itb.walker.requestOrigin_Completed::total            0                       # Table walker requests started/completed, data/inst
system.cpu.itb.walker.requestOrigin::total            0                       # Table walker requests started/completed, data/inst
system.cpu.itb.walker.power_state.pwrStateResidencyTicks::UNDEFINED  59150557500                       # Cumulative time (in ticks) in various power states
system.cpu.power_state.pwrStateResidencyTicks::ON  59150557500                       # Cumulative time (in ticks) in various power states
system.cpu.thread0.numInsts                 100000000                       # Number of Instructions committed
system.cpu.thread0.numOps                   109431267                       # Number of Ops committed
system.cpu.thread0.numMemRefs                       0                       # Number of Memory References
system.cpu_clk_domain.clock                       500                       # Clock period in ticks
system.cpu_voltage_domain.voltage                   1                       # Voltage in Volts
system.l2.demand_hits::.cpu.inst                  249                       # number of demand (read+write) hits
system.l2.demand_hits::.cpu.data               171063                       # number of demand (read+write) hits
system.l2.demand_hits::total                   171312                       # number of demand (read+write) hits
system.l2.overall_hits::.cpu.inst                 249                       # number of overall hits
system.l2.overall_hits::.cpu.data              171063                       # number of overall hits
system.l2.overall_hits::total                  171312                       # number of overall hits
system.l2.demand_misses::.cpu.inst                521                       # number of demand (read+write) misses
system.l2.demand_misses::.cpu.data              45972                       # number of demand (read+write) misses
system.l2.demand_misses::total                  46493                       # number of demand (read+write) misses
system.l2.overall_misses::.cpu.inst               521                       # number of overall misses
system.l2.overall_misses::.cpu.data             45972                       # number of overall misses
system.l2.overall_misses::total                 46493                       # number of overall misses
system.l2.demand_miss_latency::.cpu.inst     39874000                       # number of demand (read+write) miss cycles
system.l2.demand_miss_latency::.cpu.data   3713043500                       # number of demand (read+write) miss cycles
system.l2.demand_miss_latency::total       3752917500                       # number of demand (read+write) miss cycles
system.l2.overall_miss_latency::.cpu.inst     39874000                       # number of overall miss cycles
system.l2.overall_miss_latency::.cpu.data   3713043500                       # number of overall miss cycles
system.l2.overall_miss_latency::total      3752917500                       # number of overall miss cycles
system.l2.demand_accesses::.cpu.inst              770                       # number of demand (read+write) accesses
system.l2.demand_accesses::.cpu.data           217035                       # number of demand (read+write) accesses
system.l2.demand_accesses::total               217805                       # number of demand (read+write) accesses
system.l2.overall_accesses::.cpu.inst             770                       # number of overall (read+write) accesses
system.l2.overall_accesses::.cpu.data          217035                       # number of overall (read+write) accesses
system.l2.overall_accesses::total              217805                       # number of overall (read+write) accesses
system.l2.demand_miss_rate::.cpu.inst        0.676623                       # miss rate for demand accesses
system.l2.demand_miss_rate::.cpu.data        0.211818                       # miss rate for demand accesses
system.l2.demand_miss_rate::total            0.213462                       # miss rate for demand accesses
system.l2.overall_miss_rate::.cpu.inst       0.676623                       # miss rate for overall accesses
system.l2.overall_miss_rate::.cpu.data       0.211818                       # miss rate for overall accesses
system.l2.overall_miss_rate::total           0.213462                       # miss rate for overall accesses
system.l2.demand_avg_miss_latency::.cpu.inst 76533.589251                       # average overall miss latency
system.l2.demand_avg_miss_latency::.cpu.data 80767.499782                       # average overall miss latency
system.l2.demand_avg_miss_latency::total 80720.054632                       # average overall miss latency
system.l2.overall_avg_miss_latency::.cpu.inst 76533.589251                       # average overall miss latency
system.l2.overall_avg_miss_latency::.cpu.data 80767.499782                       # average overall miss latency
system.l2.overall_avg_miss_latency::total 80720.054632                       # average overall miss latency
system.l2.blocked_cycles::no_mshrs                  0                       # number of cycles access was blocked
system.l2.blocked_cycles::no_targets                0                       # number of cycles access was blocked
system.l2.blocked::no_mshrs                         0                       # number of cycles access was blocked
system.l2.blocked::no_targets                       0                       # number of cycles access was blocked
system.l2.avg_blocked_cycles::no_mshrs            nan                       # average number of cycles each access was blocked
system.l2.avg_blocked_cycles::no_targets          nan                       # average number of cycles each access was blocked
system.l2.writebacks::.writebacks               37654                       # number of writebacks
system.l2.writebacks::total                     37654                       # number of writebacks
system.l2.demand_mshr_hits::.cpu.inst               1                       # number of demand (read+write) MSHR hits
system.l2.demand_mshr_hits::.cpu.data               5                       # number of demand (read+write) MSHR hits
system.l2.demand_mshr_hits::total                   6                       # number of demand (read+write) MSHR hits
system.l2.overall_mshr_hits::.cpu.inst              1                       # number of overall MSHR hits
system.l2.overall_mshr_hits::.cpu.data              5                       # number of overall MSHR hits
system.l2.overall_mshr_hits::total                  6                       # number of overall MSHR hits
system.l2.demand_mshr_misses::.cpu.inst           520                       # number of demand (read+write) MSHR misses
system.l2.demand_mshr_misses::.cpu.data         45967                       # number of demand (read+write) MSHR misses
system.l2.demand_mshr_misses::total             46487                       # number of demand (read+write) MSHR misses
system.l2.overall_mshr_misses::.cpu.inst          520                       # number of overall MSHR misses
system.l2.overall_mshr_misses::.cpu.data        45967                       # number of overall MSHR misses
system.l2.overall_mshr_misses::total            46487                       # number of overall MSHR misses
system.l2.demand_mshr_miss_latency::.cpu.inst     34609500                       # number of demand (read+write) MSHR miss cycles
system.l2.demand_mshr_miss_latency::.cpu.data   3253048000                       # number of demand (read+write) MSHR miss cycles
system.l2.demand_mshr_miss_latency::total   3287657500                       # number of demand (read+write) MSHR miss cycles
system.l2.overall_mshr_miss_latency::.cpu.inst     34609500                       # number of overall MSHR miss cycles
system.l2.overall_mshr_miss_latency::.cpu.data   3253048000                       # number of overall MSHR miss cycles
system.l2.overall_mshr_miss_latency::total   3287657500                       # number of overall MSHR miss cycles
system.l2.demand_mshr_miss_rate::.cpu.inst     0.675325                       # mshr miss rate for demand accesses
system.l2.demand_mshr_miss_rate::.cpu.data     0.211795                       # mshr miss rate for demand accesses
system.l2.demand_mshr_miss_rate::total       0.213434                       # mshr miss rate for demand accesses
system.l2.overall_mshr_miss_rate::.cpu.inst     0.675325                       # mshr miss rate for overall accesses
system.l2.overall_mshr_miss_rate::.cpu.data     0.211795                       # mshr miss rate for overall accesses
system.l2.overall_mshr_miss_rate::total      0.213434                       # mshr miss rate for overall accesses
system.l2.demand_avg_mshr_miss_latency::.cpu.inst 66556.730769                       # average overall mshr miss latency
system.l2.demand_avg_mshr_miss_latency::.cpu.data 70769.203994                       # average overall mshr miss latency
system.l2.demand_avg_mshr_miss_latency::total 70722.083593                       # average overall mshr miss latency
system.l2.overall_avg_mshr_miss_latency::.cpu.inst 66556.730769                       # average overall mshr miss latency
system.l2.overall_avg_mshr_miss_latency::.cpu.data 70769.203994                       # average overall mshr miss latency
system.l2.overall_avg_mshr_miss_latency::total 70722.083593                       # average overall mshr miss latency
system.l2.replacements                          38337                       # number of replacements
system.l2.WritebackDirty_hits::.writebacks        97591                       # number of WritebackDirty hits
system.l2.WritebackDirty_hits::total            97591                       # number of WritebackDirty hits
system.l2.WritebackDirty_accesses::.writebacks        97591                       # number of WritebackDirty accesses(hits+misses)
system.l2.WritebackDirty_accesses::total        97591                       # number of WritebackDirty accesses(hits+misses)
system.l2.WritebackClean_hits::.writebacks          310                       # number of WritebackClean hits
system.l2.WritebackClean_hits::total              310                       # number of WritebackClean hits
system.l2.WritebackClean_accesses::.writebacks          310                       # number of WritebackClean accesses(hits+misses)
system.l2.WritebackClean_accesses::total          310                       # number of WritebackClean accesses(hits+misses)
system.l2.CleanEvict_mshr_misses::.writebacks            8                       # number of CleanEvict MSHR misses
system.l2.CleanEvict_mshr_misses::total             8                       # number of CleanEvict MSHR misses
system.l2.CleanEvict_mshr_miss_rate::.writebacks          inf                       # mshr miss rate for CleanEvict accesses
system.l2.CleanEvict_mshr_miss_rate::total          inf                       # mshr miss rate for CleanEvict accesses
system.l2.ReadExReq_hits::.cpu.data             17465                       # number of ReadExReq hits
system.l2.ReadExReq_hits::total                 17465                       # number of ReadExReq hits
system.l2.ReadExReq_misses::.cpu.data           38810                       # number of ReadExReq misses
system.l2.ReadExReq_misses::total               38810                       # number of ReadExReq misses
system.l2.ReadExReq_miss_latency::.cpu.data   3068778500                       # number of ReadExReq miss cycles
system.l2.ReadExReq_miss_latency::total    3068778500                       # number of ReadExReq miss cycles
system.l2.ReadExReq_accesses::.cpu.data         56275                       # number of ReadExReq accesses(hits+misses)
system.l2.ReadExReq_accesses::total             56275                       # number of ReadExReq accesses(hits+misses)
system.l2.ReadExReq_miss_rate::.cpu.data     0.689649                       # miss rate for ReadExReq accesses
system.l2.ReadExReq_miss_rate::total         0.689649                       # miss rate for ReadExReq accesses
system.l2.ReadExReq_avg_miss_latency::.cpu.data 79071.850039                       # average ReadExReq miss latency
system.l2.ReadExReq_avg_miss_latency::total 79071.850039                       # average ReadExReq miss latency
system.l2.ReadExReq_mshr_misses::.cpu.data        38810                       # number of ReadExReq MSHR misses
system.l2.ReadExReq_mshr_misses::total          38810                       # number of ReadExReq MSHR misses
system.l2.ReadExReq_mshr_miss_latency::.cpu.data   2680678500                       # number of ReadExReq MSHR miss cycles
system.l2.ReadExReq_mshr_miss_latency::total   2680678500                       # number of ReadExReq MSHR miss cycles
system.l2.ReadExReq_mshr_miss_rate::.cpu.data     0.689649                       # mshr miss rate for ReadExReq accesses
system.l2.ReadExReq_mshr_miss_rate::total     0.689649                       # mshr miss rate for ReadExReq accesses
system.l2.ReadExReq_avg_mshr_miss_latency::.cpu.data 69071.850039                       # average ReadExReq mshr miss latency
system.l2.ReadExReq_avg_mshr_miss_latency::total 69071.850039                       # average ReadExReq mshr miss latency
system.l2.ReadCleanReq_hits::.cpu.inst            249                       # number of ReadCleanReq hits
system.l2.ReadCleanReq_hits::total                249                       # number of ReadCleanReq hits
system.l2.ReadCleanReq_misses::.cpu.inst          521                       # number of ReadCleanReq misses
system.l2.ReadCleanReq_misses::total              521                       # number of ReadCleanReq misses
system.l2.ReadCleanReq_miss_latency::.cpu.inst     39874000                       # number of ReadCleanReq miss cycles
system.l2.ReadCleanReq_miss_latency::total     39874000                       # number of ReadCleanReq miss cycles
system.l2.ReadCleanReq_accesses::.cpu.inst          770                       # number of ReadCleanReq accesses(hits+misses)
system.l2.ReadCleanReq_accesses::total            770                       # number of ReadCleanReq accesses(hits+misses)
system.l2.ReadCleanReq_miss_rate::.cpu.inst     0.676623                       # miss rate for ReadCleanReq accesses
system.l2.ReadCleanReq_miss_rate::total      0.676623                       # miss rate for ReadCleanReq accesses
system.l2.ReadCleanReq_avg_miss_latency::.cpu.inst 76533.589251                       # average ReadCleanReq miss latency
system.l2.ReadCleanReq_avg_miss_latency::total 76533.589251                       # average ReadCleanReq miss latency
system.l2.ReadCleanReq_mshr_hits::.cpu.inst            1                       # number of ReadCleanReq MSHR hits
system.l2.ReadCleanReq_mshr_hits::total             1                       # number of ReadCleanReq MSHR hits
system.l2.ReadCleanReq_mshr_misses::.cpu.inst          520                       # number of ReadCleanReq MSHR misses
system.l2.ReadCleanReq_mshr_misses::total          520                       # number of ReadCleanReq MSHR misses
system.l2.ReadCleanReq_mshr_miss_latency::.cpu.inst     34609500                       # number of ReadCleanReq MSHR miss cycles
system.l2.ReadCleanReq_mshr_miss_latency::total     34609500                       # number of ReadCleanReq MSHR miss cycles
system.l2.ReadCleanReq_mshr_miss_rate::.cpu.inst     0.675325                       # mshr miss rate for ReadCleanReq accesses
system.l2.ReadCleanReq_mshr_miss_rate::total     0.675325                       # mshr miss rate for ReadCleanReq accesses
system.l2.ReadCleanReq_avg_mshr_miss_latency::.cpu.inst 66556.730769                       # average ReadCleanReq mshr miss latency
system.l2.ReadCleanReq_avg_mshr_miss_latency::total 66556.730769                       # average ReadCleanReq mshr miss latency
system.l2.ReadSharedReq_hits::.cpu.data        153598                       # number of ReadSharedReq hits
system.l2.ReadSharedReq_hits::total            153598                       # number of ReadSharedReq hits
system.l2.ReadSharedReq_misses::.cpu.data         7162                       # number of ReadSharedReq misses
system.l2.ReadSharedReq_misses::total            7162                       # number of ReadSharedReq misses
system.l2.ReadSharedReq_miss_latency::.cpu.data    644265000                       # number of ReadSharedReq miss cycles
system.l2.ReadSharedReq_miss_latency::total    644265000                       # number of ReadSharedReq miss cycles
system.l2.ReadSharedReq_accesses::.cpu.data       160760                       # number of ReadSharedReq accesses(hits+misses)
system.l2.ReadSharedReq_accesses::total        160760                       # number of ReadSharedReq accesses(hits+misses)
system.l2.ReadSharedReq_miss_rate::.cpu.data     0.044551                       # miss rate for ReadSharedReq accesses
system.l2.ReadSharedReq_miss_rate::total     0.044551                       # miss rate for ReadSharedReq accesses
system.l2.ReadSharedReq_avg_miss_latency::.cpu.data 89956.017872                       # average ReadSharedReq miss latency
system.l2.ReadSharedReq_avg_miss_latency::total 89956.017872                       # average ReadSharedReq miss latency
system.l2.ReadSharedReq_mshr_hits::.cpu.data            5                       # number of ReadSharedReq MSHR hits
system.l2.ReadSharedReq_mshr_hits::total            5                       # number of ReadSharedReq MSHR hits
system.l2.ReadSharedReq_mshr_misses::.cpu.data         7157                       # number of ReadSharedReq MSHR misses
system.l2.ReadSharedReq_mshr_misses::total         7157                       # number of ReadSharedReq MSHR misses
system.l2.ReadSharedReq_mshr_miss_latency::.cpu.data    572369500                       # number of ReadSharedReq MSHR miss cycles
system.l2.ReadSharedReq_mshr_miss_latency::total    572369500                       # number of ReadSharedReq MSHR miss cycles
system.l2.ReadSharedReq_mshr_miss_rate::.cpu.data     0.044520                       # mshr miss rate for ReadSharedReq accesses
system.l2.ReadSharedReq_mshr_miss_rate::total     0.044520                       # mshr miss rate for ReadSharedReq accesses
system.l2.ReadSharedReq_avg_mshr_miss_latency::.cpu.data 79973.382702                       # average ReadSharedReq mshr miss latency
system.l2.ReadSharedReq_avg_mshr_miss_latency::total 79973.382702                       # average ReadSharedReq mshr miss latency
system.l2.power_state.pwrStateResidencyTicks::UNDEFINED  59150557500                       # Cumulative time (in ticks) in various power states
system.l2.tags.tagsinuse                  7992.248880                       # Cycle average of tags in use
system.l2.tags.total_refs                      431516                       # Total number of references to valid blocks.
system.l2.tags.sampled_refs                     46529                       # Sample count of references to valid blocks.
system.l2.tags.avg_refs                      9.274130                       # Average number of references to valid blocks.
system.l2.tags.warmup_cycle                     77000                       # Cycle when the warmup percentage was hit.
system.l2.tags.occ_blocks::.writebacks       5.137307                       # Average occupied blocks per requestor
system.l2.tags.occ_blocks::.cpu.inst        28.665681                       # Average occupied blocks per requestor
system.l2.tags.occ_blocks::.cpu.data      7958.445892                       # Average occupied blocks per requestor
system.l2.tags.occ_percent::.writebacks      0.000627                       # Average percentage of cache occupancy
system.l2.tags.occ_percent::.cpu.inst        0.003499                       # Average percentage of cache occupancy
system.l2.tags.occ_percent::.cpu.data        0.971490                       # Average percentage of cache occupancy
system.l2.tags.occ_percent::total            0.975616                       # Average percentage of cache occupancy
system.l2.tags.occ_task_id_blocks::1024          8192                       # Occupied blocks per task id
system.l2.tags.age_task_id_blocks_1024::0            3                       # Occupied blocks per task id
system.l2.tags.age_task_id_blocks_1024::1           34                       # Occupied blocks per task id
system.l2.tags.age_task_id_blocks_1024::2          539                       # Occupied blocks per task id
system.l2.tags.age_task_id_blocks_1024::3         4383                       # Occupied blocks per task id
system.l2.tags.age_task_id_blocks_1024::4         3233                       # Occupied blocks per task id
system.l2.tags.occ_task_id_percent::1024            1                       # Percentage of cache occupancy per task id
system.l2.tags.tag_accesses                    909589                       # Number of tag accesses
system.l2.tags.data_accesses                   909589                       # Number of data accesses
system.l2.tags.power_state.pwrStateResidencyTicks::UNDEFINED  59150557500                       # Cumulative time (in ticks) in various power states
system.mem_ctrls.avgPriority_.writebacks::samples     37654.00                       # Average QoS priority value for accepted requests
system.mem_ctrls.avgPriority_.cpu.inst::samples       520.00                       # Average QoS priority value for accepted requests
system.mem_ctrls.avgPriority_.cpu.data::samples     45945.00                       # Average QoS priority value for accepted requests
system.mem_ctrls.priorityMinLatency      0.000000018750                       # per QoS priority minimum request to response latency (s)
system.mem_ctrls.priorityMaxLatency      0.003255067750                       # per QoS priority maximum request to response latency (s)
system.mem_ctrls.numReadWriteTurnArounds         2110                       # Number of turnarounds from READ to WRITE
system.mem_ctrls.numWriteReadTurnArounds         2110                       # Number of turnarounds from WRITE to READ
system.mem_ctrls.numStayReadState              145161                       # Number of times bus staying in READ state
system.mem_ctrls.numStayWriteState              35555                       # Number of times bus staying in WRITE state
system.mem_ctrls.readReqs                       46487                       # Number of read requests accepted
system.mem_ctrls.writeReqs                      37654                       # Number of write requests accepted
system.mem_ctrls.readBursts                     46487                       # Number of controller read bursts, including those serviced by the write queue
system.mem_ctrls.writeBursts                    37654                       # Number of controller write bursts, including those merged in the write queue
system.mem_ctrls.servicedByWrQ                     22                       # Number of controller read bursts serviced by the write queue
system.mem_ctrls.mergedWrBursts                     0                       # Number of controller write bursts merged with an existing one
system.mem_ctrls.neitherReadNorWriteReqs            0                       # Number of requests that are neither read nor write
system.mem_ctrls.avgRdQLen                       1.08                       # Average read queue length when enqueuing
system.mem_ctrls.avgWrQLen                      23.62                       # Average write queue length when enqueuing
system.mem_ctrls.numRdRetry                         0                       # Number of times read queue was full causing retry
system.mem_ctrls.numWrRetry                         0                       # Number of times write queue was full causing retry
[...]
system.mem_ctrls.dram.bw_write::.writebacks     40741053                       # Write bandwidth from this memory (bytes/s)
system.mem_ctrls.dram.bw_write::total        40741053                       # Write bandwidth from this memory (bytes/s)
system.mem_ctrls.dram.bw_total::.writebacks     40741053                       # Total bandwidth to/from this memory (bytes/s)
system.mem_ctrls.dram.bw_total::.cpu.inst       562632                       # Total bandwidth to/from this memory (bytes/s)
system.mem_ctrls.dram.bw_total::.cpu.data     49735592                       # Total bandwidth to/from this memory (bytes/s)
system.mem_ctrls.dram.bw_total::total        91039277                       # Total bandwidth to/from this memory (bytes/s)
system.mem_ctrls.dram.readBursts                46465                       # Number of DRAM read bursts
system.mem_ctrls.dram.writeBursts               37622                       # Number of DRAM write bursts
system.mem_ctrls.dram.perBankRdBursts::0         2959                       # Per bank write bursts
system.mem_ctrls.dram.perBankRdBursts::1         2829                       # Per bank write bursts
system.mem_ctrls.dram.perBankRdBursts::2         2879                       # Per bank write bursts
system.mem_ctrls.dram.perBankRdBursts::3         2974                       # Per bank write bursts
system.mem_ctrls.dram.perBankRdBursts::4         2982                       # Per bank write bursts
system.mem_ctrls.dram.perBankRdBursts::5         2736                       # Per bank write bursts
system.mem_ctrls.dram.perBankRdBursts::6         2870                       # Per bank write bursts
system.mem_ctrls.dram.perBankRdBursts::7         3021                       # Per bank write bursts
system.mem_ctrls.dram.perBankRdBursts::8         2847                       # Per bank write bursts
system.mem_ctrls.dram.perBankRdBursts::9         2894                       # Per bank write bursts
system.mem_ctrls.dram.perBankRdBursts::10         2987                       # Per bank write bursts
system.mem_ctrls.dram.perBankRdBursts::11         2899                       # Per bank write bursts
system.mem_ctrls.dram.perBankRdBursts::12         2889                       # Per bank write bursts
system.mem_ctrls.dram.perBankRdBursts::13         2939                       # Per bank write bursts
system.mem_ctrls.dram.perBankRdBursts::14         2889                       # Per bank write bursts
system.mem_ctrls.dram.perBankRdBursts::15         2871                       # Per bank write bursts
system.mem_ctrls.dram.perBankWrBursts::0         2405                       # Per bank write bursts
system.mem_ctrls.dram.perBankWrBursts::1         2281                       # Per bank write bursts
system.mem_ctrls.dram.perBankWrBursts::2         2356                       # Per bank write bursts
system.mem_ctrls.dram.perBankWrBursts::3         2362                       # Per bank write bursts
system.mem_ctrls.dram.perBankWrBursts::4         2383                       # Per bank write bursts
system.mem_ctrls.dram.perBankWrBursts::5         2224                       # Per bank write bursts
system.mem_ctrls.dram.perBankWrBursts::6         2361                       # Per bank write bursts
system.mem_ctrls.dram.perBankWrBursts::7         2484                       # Per bank write bursts
system.mem_ctrls.dram.perBankWrBursts::8         2308                       # Per bank write bursts
system.mem_ctrls.dram.perBankWrBursts::9         2329                       # Per bank write bursts
system.mem_ctrls.dram.perBankWrBursts::10         2434                       # Per bank write bursts
system.mem_ctrls.dram.perBankWrBursts::11         2325                       # Per bank write bursts
system.mem_ctrls.dram.perBankWrBursts::12         2331                       # Per bank write bursts
system.mem_ctrls.dram.perBankWrBursts::13         2403                       # Per bank write bursts
system.mem_ctrls.dram.perBankWrBursts::14         2305                       # Per bank write bursts
system.mem_ctrls.dram.perBankWrBursts::15         2331                       # Per bank write bursts
system.mem_ctrls.dram.totQLat               506504250                       # Total ticks spent queuing
system.mem_ctrls.dram.totBusLat             232325000                       # Total ticks spent in databus transfers
system.mem_ctrls.dram.totMemAccLat         1377723000                       # Total ticks spent from burst creation until serviced by the DRAM
system.mem_ctrls.dram.avgQLat                10900.77                       # Average queueing delay per DRAM burst
system.mem_ctrls.dram.avgBusLat               5000.00                       # Average bus latency per DRAM burst
system.mem_ctrls.dram.avgMemAccLat           29650.77                       # Average memory access latency per DRAM burst
system.mem_ctrls.dram.readRowHits               28415                       # Number of row buffer hits during reads
system.mem_ctrls.dram.writeRowHits              27320                       # Number of row buffer hits during writes
system.mem_ctrls.dram.readRowHitRate            61.15                       # Row buffer hit rate for reads
system.mem_ctrls.dram.writeRowHitRate           72.62                       # Row buffer hit rate for writes
system.mem_ctrls.dram.bytesPerActivate::samples        28351                       # Bytes accessed per row activation
system.mem_ctrls.dram.bytesPerActivate::mean   189.814821                       # Bytes accessed per row activation
system.mem_ctrls.dram.bytesPerActivate::gmean   126.653986                       # Bytes accessed per row activation
system.mem_ctrls.dram.bytesPerActivate::stdev   217.411002                       # Bytes accessed per row activation
system.mem_ctrls.dram.bytesPerActivate::0-127        14108     49.76%     49.76% # Bytes accessed per row activation
system.mem_ctrls.dram.bytesPerActivate::128-255         9065     31.97%     81.74% # Bytes accessed per row activation
system.mem_ctrls.dram.bytesPerActivate::256-383         1517      5.35%     87.09% # Bytes accessed per row activation
system.mem_ctrls.dram.bytesPerActivate::384-511          859      3.03%     90.12% # Bytes accessed per row activation
system.mem_ctrls.dram.bytesPerActivate::512-639          747      2.63%     92.75% # Bytes accessed per row activation
system.mem_ctrls.dram.bytesPerActivate::640-767          582      2.05%     94.80% # Bytes accessed per row activation
system.mem_ctrls.dram.bytesPerActivate::768-895          424      1.50%     96.30% # Bytes accessed per row activation
system.mem_ctrls.dram.bytesPerActivate::896-1023          460      1.62%     97.92% # Bytes accessed per row activation
system.mem_ctrls.dram.bytesPerActivate::1024-1151          589      2.08%    100.00% # Bytes accessed per row activation
system.mem_ctrls.dram.bytesPerActivate::total        28351                       # Bytes accessed per row activation
system.mem_ctrls.dram.bytesRead               2973760                       # Total number of bytes read from DRAM
system.mem_ctrls.dram.bytesWritten            2407808                       # Total number of bytes written to DRAM
system.mem_ctrls.dram.avgRdBW               50.274420                       # Average DRAM read bandwidth in MiBytes/s
system.mem_ctrls.dram.avgWrBW               40.706430                       # Average DRAM write bandwidth in MiBytes/s
system.mem_ctrls.dram.peakBW                 12800.00                       # Theoretical peak bandwidth in MiByte/s
system.mem_ctrls.dram.busUtil                    0.71                       # Data bus utilization in percentage
system.mem_ctrls.dram.busUtilRead                0.39                       # Data bus utilization in percentage for reads
system.mem_ctrls.dram.busUtilWrite               0.32                       # Data bus utilization in percentage for writes
system.mem_ctrls.dram.pageHitRate               66.28                       # Row buffer hit rate, read and write combined
system.mem_ctrls.dram.power_state.pwrStateResidencyTicks::UNDEFINED  59150557500                       # Cumulative time (in ticks) in various power states
system.mem_ctrls.dram.rank0.actEnergy       103301520                       # Energy for activate commands per rank (pJ)
system.mem_ctrls.dram.rank0.preEnergy        54902265                       # Energy for precharge commands per rank (pJ)
system.mem_ctrls.dram.rank0.readEnergy      166005000                       # Energy for read commands per rank (pJ)
system.mem_ctrls.dram.rank0.writeEnergy      98428320                       # Energy for write commands per rank (pJ)
system.mem_ctrls.dram.rank0.refreshEnergy 4668805440.000001                       # Energy for refresh commands per rank (pJ)
system.mem_ctrls.dram.rank0.actBackEnergy  15342530970                       # Energy for active background per rank (pJ)
system.mem_ctrls.dram.rank0.preBackEnergy   9793788000                       # Energy for precharge background per rank (pJ)
system.mem_ctrls.dram.rank0.actPowerDownEnergy            0                       # Energy for active power-down per rank (pJ)
system.mem_ctrls.dram.rank0.prePowerDownEnergy            0                       # Energy for precharge power-down per rank (pJ)
system.mem_ctrls.dram.rank0.selfRefreshEnergy            0                       # Energy for self refresh per rank (pJ)
system.mem_ctrls.dram.rank0.totalEnergy   30227761515                       # Total energy per rank (pJ)
system.mem_ctrls.dram.rank0.averagePower   511.030881                       # Core power per rank (mW)
system.mem_ctrls.dram.rank0.totalIdleTime            0                       # Total Idle time Per DRAM Rank
system.mem_ctrls.dram.rank0.pwrStateTime::IDLE  25314427500                       # Time in different power states
system.mem_ctrls.dram.rank0.pwrStateTime::REF   1974960000                       # Time in different power states
system.mem_ctrls.dram.rank0.pwrStateTime::SREF            0                       # Time in different power states
system.mem_ctrls.dram.rank0.pwrStateTime::PRE_PDN            0                       # Time in different power states
system.mem_ctrls.dram.rank0.pwrStateTime::ACT  31861170000                       # Time in different power states
system.mem_ctrls.dram.rank0.pwrStateTime::ACT_PDN            0                       # Time in different power states
system.mem_ctrls.dram.rank1.actEnergy        99131760                       # Energy for activate commands per rank (pJ)
system.mem_ctrls.dram.rank1.preEnergy        52689780                       # Energy for precharge commands per rank (pJ)
system.mem_ctrls.dram.rank1.readEnergy      165755100                       # Energy for read commands per rank (pJ)
system.mem_ctrls.dram.rank1.writeEnergy      97958520                       # Energy for write commands per rank (pJ)
system.mem_ctrls.dram.rank1.refreshEnergy 4668805440.000001                       # Energy for refresh commands per rank (pJ)
system.mem_ctrls.dram.rank1.actBackEnergy  15627862140                       # Energy for active background per rank (pJ)
system.mem_ctrls.dram.rank1.preBackEnergy   9553509120                       # Energy for precharge background per rank (pJ)
system.mem_ctrls.dram.rank1.actPowerDownEnergy            0                       # Energy for active power-down per rank (pJ)
system.mem_ctrls.dram.rank1.prePowerDownEnergy            0                       # Energy for precharge power-down per rank (pJ)
system.mem_ctrls.dram.rank1.selfRefreshEnergy            0                       # Energy for self refresh per rank (pJ)
system.mem_ctrls.dram.rank1.totalEnergy   30265711860                       # Total energy per rank (pJ)
system.mem_ctrls.dram.rank1.averagePower   511.672470                       # Core power per rank (mW)
system.mem_ctrls.dram.rank1.totalIdleTime            0                       # Total Idle time Per DRAM Rank
system.mem_ctrls.dram.rank1.pwrStateTime::IDLE  24686234750                       # Time in different power states
system.mem_ctrls.dram.rank1.pwrStateTime::REF   1974960000                       # Time in different power states
system.mem_ctrls.dram.rank1.pwrStateTime::SREF            0                       # Time in different power states
system.mem_ctrls.dram.rank1.pwrStateTime::PRE_PDN            0                       # Time in different power states
system.mem_ctrls.dram.rank1.pwrStateTime::ACT  32489362750                       # Time in different power states
system.mem_ctrls.dram.rank1.pwrStateTime::ACT_PDN            0                       # Time in different power states
system.mem_ctrls.power_state.pwrStateResidencyTicks::UNDEFINED  59150557500                       # Cumulative time (in ticks) in various power states
system.membus.trans_dist::ReadResp               7677                       # Transaction distribution
system.membus.trans_dist::WritebackDirty        37654                       # Transaction distribution
system.membus.trans_dist::CleanEvict              182                       # Transaction distribution
system.membus.trans_dist::ReadExReq             38810                       # Transaction distribution
system.membus.trans_dist::ReadExResp            38810                       # Transaction distribution
system.membus.trans_dist::ReadSharedReq          7677                       # Transaction distribution
system.membus.pkt_count_system.l2.mem_side_port::system.mem_ctrls.port       130810                       # Packet count per connected requestor and responder (bytes)
system.membus.pkt_count::total                 130810                       # Packet count per connected requestor and responder (bytes)
system.membus.pkt_size_system.l2.mem_side_port::system.mem_ctrls.port      5385024                       # Cumulative packet size per connected requestor and responder (bytes)
system.membus.pkt_size::total                 5385024                       # Cumulative packet size per connected requestor and responder (bytes)
system.membus.snoops                                0                       # Total snoops (count)
system.membus.snoopTraffic                          0                       # Total snoop traffic (bytes)
system.membus.snoop_fanout::samples             46487                       # Request fanout histogram
system.membus.snoop_fanout::mean                    0                       # Request fanout histogram
system.membus.snoop_fanout::stdev                   0                       # Request fanout histogram
system.membus.snoop_fanout::underflows              0      0.00%      0.00% # Request fanout histogram
system.membus.snoop_fanout::0                   46487    100.00%    100.00% # Request fanout histogram
system.membus.snoop_fanout::1                       0      0.00%    100.00% # Request fanout histogram
system.membus.snoop_fanout::overflows               0      0.00%    100.00% # Request fanout histogram
system.membus.snoop_fanout::min_value               0                       # Request fanout histogram
system.membus.snoop_fanout::max_value               0                       # Request fanout histogram
system.membus.snoop_fanout::total               46487                       # Request fanout histogram
system.membus.power_state.pwrStateResidencyTicks::UNDEFINED  59150557500                       # Cumulative time (in ticks) in various power states
system.membus.reqLayer0.occupancy           245871500                       # Layer occupancy (ticks)
system.membus.reqLayer0.utilization               0.4                       # Layer utilization (%)
system.membus.respLayer1.occupancy          248873000                       # Layer occupancy (ticks)
system.membus.respLayer1.utilization              0.4                       # Layer utilization (%)
system.tol2bus.trans_dist::ReadResp            161530                       # Transaction distribution
system.tol2bus.trans_dist::WritebackDirty       135245                       # Transaction distribution
system.tol2bus.trans_dist::WritebackClean          314                       # Transaction distribution
system.tol2bus.trans_dist::CleanEvict          119871                       # Transaction distribution
system.tol2bus.trans_dist::ReadExReq            56275                       # Transaction distribution
system.tol2bus.trans_dist::ReadExResp           56275                       # Transaction distribution
system.tol2bus.trans_dist::ReadCleanReq           770                       # Transaction distribution
system.tol2bus.trans_dist::ReadSharedReq       160760                       # Transaction distribution
system.tol2bus.pkt_count_system.cpu.icache.mem_side_port::system.l2.cpu_side_port         1854                       # Packet count per connected requestor and responder (bytes)
system.tol2bus.pkt_count_system.cpu.dcache.mem_side_port::system.l2.cpu_side_port       650849                       # Packet count per connected requestor and responder (bytes)
system.tol2bus.pkt_count::total                652703                       # Packet count per connected requestor and responder (bytes)
system.tol2bus.pkt_size_system.cpu.icache.mem_side_port::system.l2.cpu_side_port        69376                       # Cumulative packet size per connected requestor and responder (bytes)
system.tol2bus.pkt_size_system.cpu.dcache.mem_side_port::system.l2.cpu_side_port     20136064                       # Cumulative packet size per connected requestor and responder (bytes)
system.tol2bus.pkt_size::total               20205440                       # Cumulative packet size per connected requestor and responder (bytes)
system.tol2bus.snoops                           38337                       # Total snoops (count)
system.tol2bus.snoopTraffic                   2409856                       # Total snoop traffic (bytes)
system.tol2bus.snoop_fanout::samples           256142                       # Request fanout histogram
system.tol2bus.snoop_fanout::mean            0.015183                       # Request fanout histogram
system.tol2bus.snoop_fanout::stdev           0.122536                       # Request fanout histogram
system.tol2bus.snoop_fanout::underflows             0      0.00%      0.00% # Request fanout histogram
system.tol2bus.snoop_fanout::0                 252261     98.48%     98.48% # Request fanout histogram
system.tol2bus.snoop_fanout::1                   3873      1.51%    100.00% # Request fanout histogram
system.tol2bus.snoop_fanout::2                      8      0.00%    100.00% # Request fanout histogram
system.tol2bus.snoop_fanout::overflows              0      0.00%    100.00% # Request fanout histogram
system.tol2bus.snoop_fanout::min_value              0                       # Request fanout histogram
system.tol2bus.snoop_fanout::max_value              2                       # Request fanout histogram
system.tol2bus.snoop_fanout::total             256142                       # Request fanout histogram
system.tol2bus.power_state.pwrStateResidencyTicks::UNDEFINED  59150557500                       # Cumulative time (in ticks) in various power states
system.tol2bus.reqLayer0.occupancy          315354000                       # Layer occupancy (ticks)
system.tol2bus.reqLayer0.utilization              0.5                       # Layer utilization (%)
system.tol2bus.respLayer0.occupancy           1155499                       # Layer occupancy (ticks)
system.tol2bus.respLayer0.utilization             0.0                       # Layer utilization (%)
system.tol2bus.respLayer1.occupancy         325554995                       # Layer occupancy (ticks)
system.tol2bus.respLayer1.utilization             0.6                       # Layer utilization (%)
system.voltage_domain.voltage                       1                       # Voltage in Volts

---------- End Simulation Statistics   ----------
