
---------- Begin Simulation Statistics ----------
final_tick                               498371904000                       # Number of ticks from beginning of simulation (restored from checkpoints and never reset)
host_inst_rate                                  64498                       # Simulator instruction rate (inst/s)
host_mem_usage                                 666004                       # Number of bytes of host memory used
host_op_rate                                   118818                       # Simulator op (including micro ops) rate (op/s)
host_seconds                                  1550.43                       # Real time elapsed on the host
host_tick_rate                              321441520                       # Simulator tick rate (ticks/s)
sim_freq                                 1000000000000                       # Frequency of simulated ticks
sim_insts                                   100000001                       # Number of instructions simulated
sim_ops                                     184218784                       # Number of ops (including micro ops) simulated
sim_seconds                                  0.498372                       # Number of seconds simulated
sim_ticks                                498371904000                       # Number of ticks simulated
system.cpu.committedInsts                   100000001                       # Number of instructions committed
system.cpu.committedOps                     184218784                       # Number of ops (including micro ops) committed
system.cpu.cpi                               4.983719                       # CPI: cycles per instruction
system.cpu.discardedOps                          4396                       # Number of ops (including micro ops) which were discarded before commit
system.cpu.idleCycles                       279317937                       # Total number of cycles that the object has spent stopped
system.cpu.ipc                               0.200653                       # IPC: instructions per cycle
system.cpu.numCycles                        498371904                       # number of cpu cycles simulated
system.cpu.numFetchSuspends                         0                       # Number of times Execute suspended instruction fetching
system.cpu.numWorkItemsCompleted                    0                       # number of work items this cpu completed
system.cpu.numWorkItemsStarted                      0                       # number of work items this cpu started
system.cpu.op_class_0::No_OpClass                   0      0.00%      0.00% # Class of committed instruction
system.cpu.op_class_0::IntAlu                97640468     53.00%     53.00% # Class of committed instruction
system.cpu.op_class_0::IntMult                 114702      0.06%     53.06% # Class of committed instruction
system.cpu.op_class_0::IntDiv                       0      0.00%     53.06% # Class of committed instruction
system.cpu.op_class_0::FloatAdd                     0      0.00%     53.06% # Class of committed instruction
system.cpu.op_class_0::FloatCmp                     0      0.00%     53.06% # Class of committed instruction
system.cpu.op_class_0::FloatCvt                     0      0.00%     53.06% # Class of committed instruction
system.cpu.op_class_0::FloatMult                    0      0.00%     53.06% # Class of committed instruction
system.cpu.op_class_0::FloatMultAcc                 0      0.00%     53.06% # Class of committed instruction
system.cpu.op_class_0::FloatDiv                     0      0.00%     53.06% # Class of committed instruction
system.cpu.op_class_0::FloatMisc                    0      0.00%     53.06% # Class of committed instruction
system.cpu.op_class_0::FloatSqrt                    0      0.00%     53.06% # Class of committed instruction
system.cpu.op_class_0::SimdAdd                      8      0.00%     53.06% # Class of committed instruction
system.cpu.op_class_0::SimdAddAcc                   0      0.00%     53.06% # Class of committed instruction
system.cpu.op_class_0::SimdAlu                     10      0.00%     53.06% # Class of committed instruction
system.cpu.op_class_0::SimdCmp                      8      0.00%     53.06% # Class of committed instruction
system.cpu.op_class_0::SimdCvt                      0      0.00%     53.06% # Class of committed instruction
system.cpu.op_class_0::SimdMisc                     1      0.00%     53.06% # Class of committed instruction
system.cpu.op_class_0::SimdMult                     0      0.00%     53.06% # Class of committed instruction
system.cpu.op_class_0::SimdMultAcc                  0      0.00%     53.06% # Class of committed instruction
system.cpu.op_class_0::SimdShift                    0      0.00%     53.06% # Class of committed instruction
system.cpu.op_class_0::SimdShiftAcc                 0      0.00%     53.06% # Class of committed instruction
system.cpu.op_class_0::SimdDiv                      0      0.00%     53.06% # Class of committed instruction
system.cpu.op_class_0::SimdSqrt                     0      0.00%     53.06% # Class of committed instruction
system.cpu.op_class_0::SimdFloatAdd                 0      0.00%     53.06% # Class of committed instruction
system.cpu.op_class_0::SimdFloatAlu                 0      0.00%     53.06% # Class of committed instruction
system.cpu.op_class_0::SimdFloatCmp                 0      0.00%     53.06% # Class of committed instruction
system.cpu.op_class_0::SimdFloatCvt                 0      0.00%     53.06% # Class of committed instruction
system.cpu.op_class_0::SimdFloatDiv                 0      0.00%     53.06% # Class of committed instruction
system.cpu.op_class_0::SimdFloatMisc               24      0.00%     53.06% # Class of committed instruction
system.cpu.op_class_0::SimdFloatMult                0      0.00%     53.06% # Class of committed instruction
system.cpu.op_class_0::SimdFloatMultAcc             0      0.00%     53.06% # Class of committed instruction
system.cpu.op_class_0::SimdFloatSqrt                0      0.00%     53.06% # Class of committed instruction
system.cpu.op_class_0::SimdReduceAdd                0      0.00%     53.06% # Class of committed instruction
system.cpu.op_class_0::SimdReduceAlu                0      0.00%     53.06% # Class of committed instruction
system.cpu.op_class_0::SimdReduceCmp                0      0.00%     53.06% # Class of committed instruction
system.cpu.op_class_0::SimdFloatReduceAdd            0      0.00%     53.06% # Class of committed instruction
system.cpu.op_class_0::SimdFloatReduceCmp            0      0.00%     53.06% # Class of committed instruction
system.cpu.op_class_0::SimdAes                      0      0.00%     53.06% # Class of committed instruction
system.cpu.op_class_0::SimdAesMix                   0      0.00%     53.06% # Class of committed instruction
system.cpu.op_class_0::SimdSha1Hash                 0      0.00%     53.06% # Class of committed instruction
system.cpu.op_class_0::SimdSha1Hash2                0      0.00%     53.06% # Class of committed instruction
system.cpu.op_class_0::SimdSha256Hash               0      0.00%     53.06% # Class of committed instruction
system.cpu.op_class_0::SimdSha256Hash2              0      0.00%     53.06% # Class of committed instruction
system.cpu.op_class_0::SimdShaSigma2                0      0.00%     53.06% # Class of committed instruction
system.cpu.op_class_0::SimdShaSigma3                0      0.00%     53.06% # Class of committed instruction
system.cpu.op_class_0::SimdPredAlu                  0      0.00%     53.06% # Class of committed instruction
system.cpu.op_class_0::MemRead                2082677      1.13%     54.20% # Class of committed instruction
system.cpu.op_class_0::MemWrite              84380886     45.80%    100.00% # Class of committed instruction
system.cpu.op_class_0::FloatMemRead                 0      0.00%    100.00% # Class of committed instruction
system.cpu.op_class_0::FloatMemWrite                0      0.00%    100.00% # Class of committed instruction
system.cpu.op_class_0::IprAccess                    0      0.00%    100.00% # Class of committed instruction
system.cpu.op_class_0::InstPrefetch                 0      0.00%    100.00% # Class of committed instruction
system.cpu.op_class_0::total                184218784                       # Class of committed instruction
system.cpu.tickCycles                       219053967                       # Number of cycles that the object actually ticked
system.cpu.workload.numSyscalls                    19                       # Number of system calls
system.membus.snoop_filter.hit_multi_requests            0                       # Number of requests hitting in the snoop filter with multiple (>1) holders of the requested data.
system.membus.snoop_filter.hit_multi_snoops            0                       # Number of snoops hitting in the snoop filter with multiple (>1) holders of the requested data.
system.membus.snoop_filter.hit_single_requests      2599046                       # Number of requests hitting in the snoop filter with a single holder of the requested data.
system.membus.snoop_filter.hit_single_snoops            0                       # Number of snoops hitting in the snoop filter with a single holder of the requested data.
system.membus.snoop_filter.tot_requests       5231217                       # Total number of requests made to the snoop filter.
system.membus.snoop_filter.tot_snoops               0                       # Total number of snoops made to the snoop filter.
system.tol2bus.snoop_filter.hit_multi_requests           65                       # Number of requests hitting in the snoop filter with multiple (>1) holders of the requested data.
system.tol2bus.snoop_filter.hit_multi_snoops            0                       # Number of snoops hitting in the snoop filter with multiple (>1) holders of the requested data.
system.tol2bus.snoop_filter.hit_single_requests      2631249                       # Number of requests hitting in the snoop filter with a single holder of the requested data.
system.tol2bus.snoop_filter.hit_single_snoops          397                       # Number of snoops hitting in the snoop filter with a single holder of the requested data.
system.tol2bus.snoop_filter.tot_requests      5263894                       # Total number of requests made to the snoop filter.
system.tol2bus.snoop_filter.tot_snoops            397                       # Total number of snoops made to the snoop filter.
system.clk_domain.clock                          1000                       # Clock period in ticks
system.cpu.branchPred.lookups                10658318                       # Number of BP lookups
system.cpu.branchPred.condPredicted          10650037                       # Number of conditional branches predicted
system.cpu.branchPred.condIncorrect              1450                       # Number of conditional branches incorrect
system.cpu.branchPred.BTBLookups             10650250                       # Number of BTB lookups
system.cpu.branchPred.BTBHits                10648842                       # Number of BTB hits
system.cpu.branchPred.BTBHitPct             99.986780                       # BTB Hit Percentage
system.cpu.branchPred.RASUsed                    2725                       # Number of times the RAS was used to get a target.
system.cpu.branchPred.RASIncorrect                  1                       # Number of incorrect RAS predictions.
system.cpu.branchPred.indirectLookups             194                       # Number of indirect predictor lookups.
system.cpu.branchPred.indirectHits                 18                       # Number of indirect target hits.
system.cpu.branchPred.indirectMisses              176                       # Number of indirect misses.
system.cpu.branchPred.indirectMispredicted          101                       # Number of mispredicted indirect branches.
system.cpu.dcache.demand_hits::.cpu.data     81117755                       # number of demand (read+write) hits
system.cpu.dcache.demand_hits::total         81117755                       # number of demand (read+write) hits
system.cpu.dcache.overall_hits::.cpu.data     81117801                       # number of overall hits
system.cpu.dcache.overall_hits::total        81117801                       # number of overall hits
system.cpu.dcache.demand_misses::.cpu.data      5262620                       # number of demand (read+write) misses
system.cpu.dcache.demand_misses::total        5262620                       # number of demand (read+write) misses
system.cpu.dcache.overall_misses::.cpu.data      5262645                       # number of overall misses
system.cpu.dcache.overall_misses::total       5262645                       # number of overall misses
system.cpu.dcache.demand_miss_latency::.cpu.data 634467326000                       # number of demand (read+write) miss cycles
system.cpu.dcache.demand_miss_latency::total 634467326000                       # number of demand (read+write) miss cycles
system.cpu.dcache.overall_miss_latency::.cpu.data 634467326000                       # number of overall miss cycles
system.cpu.dcache.overall_miss_latency::total 634467326000                       # number of overall miss cycles
system.cpu.dcache.demand_accesses::.cpu.data     86380375                       # number of demand (read+write) accesses
system.cpu.dcache.demand_accesses::total     86380375                       # number of demand (read+write) accesses
system.cpu.dcache.overall_accesses::.cpu.data     86380446                       # number of overall (read+write) accesses
system.cpu.dcache.overall_accesses::total     86380446                       # number of overall (read+write) accesses
system.cpu.dcache.demand_miss_rate::.cpu.data     0.060924                       # miss rate for demand accesses
system.cpu.dcache.demand_miss_rate::total     0.060924                       # miss rate for demand accesses
system.cpu.dcache.overall_miss_rate::.cpu.data     0.060924                       # miss rate for overall accesses
system.cpu.dcache.overall_miss_rate::total     0.060924                       # miss rate for overall accesses
system.cpu.dcache.demand_avg_miss_latency::.cpu.data 120561.113286                       # average overall miss latency
system.cpu.dcache.demand_avg_miss_latency::total 120561.113286                       # average overall miss latency
system.cpu.dcache.overall_avg_miss_latency::.cpu.data 120560.540565                       # average overall miss latency
system.cpu.dcache.overall_avg_miss_latency::total 120560.540565                       # average overall miss latency
system.cpu.dcache.blocked_cycles::no_mshrs            0                       # number of cycles access was blocked
system.cpu.dcache.blocked_cycles::no_targets            0                       # number of cycles access was blocked
system.cpu.dcache.blocked::no_mshrs                 0                       # number of cycles access was blocked
system.cpu.dcache.blocked::no_targets               0                       # number of cycles access was blocked
system.cpu.dcache.avg_blocked_cycles::no_mshrs          nan                       # average number of cycles each access was blocked
system.cpu.dcache.avg_blocked_cycles::no_targets          nan                       # average number of cycles each access was blocked
system.cpu.dcache.writebacks::.writebacks      2630958                       # number of writebacks
system.cpu.dcache.writebacks::total           2630958                       # number of writebacks
system.cpu.dcache.demand_mshr_hits::.cpu.data      2630401                       # number of demand (read+write) MSHR hits
system.cpu.dcache.demand_mshr_hits::total      2630401                       # number of demand (read+write) MSHR hits
system.cpu.dcache.overall_mshr_hits::.cpu.data      2630401                       # number of overall MSHR hits
system.cpu.dcache.overall_mshr_hits::total      2630401                       # number of overall MSHR hits
system.cpu.dcache.demand_mshr_misses::.cpu.data      2632219                       # number of demand (read+write) MSHR misses
system.cpu.dcache.demand_mshr_misses::total      2632219                       # number of demand (read+write) MSHR misses
system.cpu.dcache.overall_mshr_misses::.cpu.data      2632237                       # number of overall MSHR misses
system.cpu.dcache.overall_mshr_misses::total      2632237                       # number of overall MSHR misses
system.cpu.dcache.demand_mshr_miss_latency::.cpu.data 308124402000                       # number of demand (read+write) MSHR miss cycles
system.cpu.dcache.demand_mshr_miss_latency::total 308124402000                       # number of demand (read+write) MSHR miss cycles
system.cpu.dcache.overall_mshr_miss_latency::.cpu.data 308126260000                       # number of overall MSHR miss cycles
system.cpu.dcache.overall_mshr_miss_latency::total 308126260000                       # number of overall MSHR miss cycles
system.cpu.dcache.demand_mshr_miss_rate::.cpu.data     0.030472                       # mshr miss rate for demand accesses
system.cpu.dcache.demand_mshr_miss_rate::total     0.030472                       # mshr miss rate for demand accesses
system.cpu.dcache.overall_mshr_miss_rate::.cpu.data     0.030473                       # mshr miss rate for overall accesses
system.cpu.dcache.overall_mshr_miss_rate::total     0.030473                       # mshr miss rate for overall accesses
system.cpu.dcache.demand_avg_mshr_miss_latency::.cpu.data 117058.801718                       # average overall mshr miss latency
system.cpu.dcache.demand_avg_mshr_miss_latency::total 117058.801718                       # average overall mshr miss latency
system.cpu.dcache.overall_avg_mshr_miss_latency::.cpu.data 117058.707100                       # average overall mshr miss latency
system.cpu.dcache.overall_avg_mshr_miss_latency::total 117058.707100                       # average overall mshr miss latency
system.cpu.dcache.replacements                2631213                       # number of replacements
system.cpu.dcache.ReadReq_hits::.cpu.data      2043341                       # number of ReadReq hits
system.cpu.dcache.ReadReq_hits::total         2043341                       # number of ReadReq hits
system.cpu.dcache.ReadReq_misses::.cpu.data          460                       # number of ReadReq misses
system.cpu.dcache.ReadReq_misses::total           460                       # number of ReadReq misses
system.cpu.dcache.ReadReq_miss_latency::.cpu.data     31621000                       # number of ReadReq miss cycles
system.cpu.dcache.ReadReq_miss_latency::total     31621000                       # number of ReadReq miss cycles
system.cpu.dcache.ReadReq_accesses::.cpu.data      2043801                       # number of ReadReq accesses(hits+misses)
system.cpu.dcache.ReadReq_accesses::total      2043801                       # number of ReadReq accesses(hits+misses)
system.cpu.dcache.ReadReq_miss_rate::.cpu.data     0.000225                       # miss rate for ReadReq accesses
system.cpu.dcache.ReadReq_miss_rate::total     0.000225                       # miss rate for ReadReq accesses
system.cpu.dcache.ReadReq_avg_miss_latency::.cpu.data 68741.304348                       # average ReadReq miss latency
system.cpu.dcache.ReadReq_avg_miss_latency::total 68741.304348                       # average ReadReq miss latency
system.cpu.dcache.ReadReq_mshr_hits::.cpu.data           49                       # number of ReadReq MSHR hits
system.cpu.dcache.ReadReq_mshr_hits::total           49                       # number of ReadReq MSHR hits
system.cpu.dcache.ReadReq_mshr_misses::.cpu.data          411                       # number of ReadReq MSHR misses
system.cpu.dcache.ReadReq_mshr_misses::total          411                       # number of ReadReq MSHR misses
system.cpu.dcache.ReadReq_mshr_miss_latency::.cpu.data     27383000                       # number of ReadReq MSHR miss cycles
system.cpu.dcache.ReadReq_mshr_miss_latency::total     27383000                       # number of ReadReq MSHR miss cycles
system.cpu.dcache.ReadReq_mshr_miss_rate::.cpu.data     0.000201                       # mshr miss rate for ReadReq accesses
system.cpu.dcache.ReadReq_mshr_miss_rate::total     0.000201                       # mshr miss rate for ReadReq accesses
system.cpu.dcache.ReadReq_avg_mshr_miss_latency::.cpu.data 66625.304136                       # average ReadReq mshr miss latency
system.cpu.dcache.ReadReq_avg_mshr_miss_latency::total 66625.304136                       # average ReadReq mshr miss latency
system.cpu.dcache.WriteReq_hits::.cpu.data     79074414                       # number of WriteReq hits
system.cpu.dcache.WriteReq_hits::total       79074414                       # number of WriteReq hits
system.cpu.dcache.WriteReq_misses::.cpu.data      5262160                       # number of WriteReq misses
system.cpu.dcache.WriteReq_misses::total      5262160                       # number of WriteReq misses
system.cpu.dcache.WriteReq_miss_latency::.cpu.data 634435705000                       # number of WriteReq miss cycles
system.cpu.dcache.WriteReq_miss_latency::total 634435705000                       # number of WriteReq miss cycles
system.cpu.dcache.WriteReq_accesses::.cpu.data     84336574                       # number of WriteReq accesses(hits+misses)
system.cpu.dcache.WriteReq_accesses::total     84336574                       # number of WriteReq accesses(hits+misses)
system.cpu.dcache.WriteReq_miss_rate::.cpu.data     0.062395                       # miss rate for WriteReq accesses
system.cpu.dcache.WriteReq_miss_rate::total     0.062395                       # miss rate for WriteReq accesses
system.cpu.dcache.WriteReq_avg_miss_latency::.cpu.data 120565.643196                       # average WriteReq miss latency
system.cpu.dcache.WriteReq_avg_miss_latency::total 120565.643196                       # average WriteReq miss latency
system.cpu.dcache.WriteReq_mshr_hits::.cpu.data      2630352                       # number of WriteReq MSHR hits
system.cpu.dcache.WriteReq_mshr_hits::total      2630352                       # number of WriteReq MSHR hits
system.cpu.dcache.WriteReq_mshr_misses::.cpu.data      2631808                       # number of WriteReq MSHR misses
system.cpu.dcache.WriteReq_mshr_misses::total      2631808                       # number of WriteReq MSHR misses
system.cpu.dcache.WriteReq_mshr_miss_latency::.cpu.data 308097019000                       # number of WriteReq MSHR miss cycles
system.cpu.dcache.WriteReq_mshr_miss_latency::total 308097019000                       # number of WriteReq MSHR miss cycles
system.cpu.dcache.WriteReq_mshr_miss_rate::.cpu.data     0.031206                       # mshr miss rate for WriteReq accesses
system.cpu.dcache.WriteReq_mshr_miss_rate::total     0.031206                       # mshr miss rate for WriteReq accesses
system.cpu.dcache.WriteReq_avg_mshr_miss_latency::.cpu.data 117066.677736                       # average WriteReq mshr miss latency
system.cpu.dcache.WriteReq_avg_mshr_miss_latency::total 117066.677736                       # average WriteReq mshr miss latency
system.cpu.dcache.SoftPFReq_hits::.cpu.data           46                       # number of SoftPFReq hits
system.cpu.dcache.SoftPFReq_hits::total            46                       # number of SoftPFReq hits
system.cpu.dcache.SoftPFReq_misses::.cpu.data           25                       # number of SoftPFReq misses
system.cpu.dcache.SoftPFReq_misses::total           25                       # number of SoftPFReq misses
system.cpu.dcache.SoftPFReq_accesses::.cpu.data           71                       # number of SoftPFReq accesses(hits+misses)
system.cpu.dcache.SoftPFReq_accesses::total           71                       # number of SoftPFReq accesses(hits+misses)
system.cpu.dcache.SoftPFReq_miss_rate::.cpu.data     0.352113                       # miss rate for SoftPFReq accesses
system.cpu.dcache.SoftPFReq_miss_rate::total     0.352113                       # miss rate for SoftPFReq accesses
system.cpu.dcache.SoftPFReq_mshr_misses::.cpu.data           18                       # number of SoftPFReq MSHR misses
system.cpu.dcache.SoftPFReq_mshr_misses::total           18                       # number of SoftPFReq MSHR misses
system.cpu.dcache.SoftPFReq_mshr_miss_latency::.cpu.data      1858000                       # number of SoftPFReq MSHR miss cycles
system.cpu.dcache.SoftPFReq_mshr_miss_latency::total      1858000                       # number of SoftPFReq MSHR miss cycles
system.cpu.dcache.SoftPFReq_mshr_miss_rate::.cpu.data     0.253521                       # mshr miss rate for SoftPFReq accesses
system.cpu.dcache.SoftPFReq_mshr_miss_rate::total     0.253521                       # mshr miss rate for SoftPFReq accesses
system.cpu.dcache.SoftPFReq_avg_mshr_miss_latency::.cpu.data 103222.222222                       # average SoftPFReq mshr miss latency
system.cpu.dcache.SoftPFReq_avg_mshr_miss_latency::total 103222.222222                       # average SoftPFReq mshr miss latency
system.cpu.dcache.LoadLockedReq_hits::.cpu.data           34                       # number of LoadLockedReq hits
system.cpu.dcache.LoadLockedReq_hits::total           34                       # number of LoadLockedReq hits
system.cpu.dcache.LoadLockedReq_accesses::.cpu.data           34                       # number of LoadLockedReq accesses(hits+misses)
system.cpu.dcache.LoadLockedReq_accesses::total           34                       # number of LoadLockedReq accesses(hits+misses)
system.cpu.dcache.StoreCondReq_hits::.cpu.data           34                       # number of StoreCondReq hits
system.cpu.dcache.StoreCondReq_hits::total           34                       # number of StoreCondReq hits
system.cpu.dcache.StoreCondReq_accesses::.cpu.data           34                       # number of StoreCondReq accesses(hits+misses)
system.cpu.dcache.StoreCondReq_accesses::total           34                       # number of StoreCondReq accesses(hits+misses)
system.cpu.dcache.power_state.pwrStateResidencyTicks::UNDEFINED 498371904000                       # Cumulative time (in ticks) in various power states
system.cpu.dcache.tags.tagsinuse          1020.750941                       # Cycle average of tags in use
system.cpu.dcache.tags.total_refs            83750106                       # Total number of references to valid blocks.
system.cpu.dcache.tags.sampled_refs           2632237                       # Sample count of references to valid blocks.
system.cpu.dcache.tags.avg_refs             31.817084                       # Average number of references to valid blocks.
system.cpu.dcache.tags.warmup_cycle            233000                       # Cycle when the warmup percentage was hit.
system.cpu.dcache.tags.occ_blocks::.cpu.data  1020.750941                       # Average occupied blocks per requestor
system.cpu.dcache.tags.occ_percent::.cpu.data     0.996827                       # Average percentage of cache occupancy
system.cpu.dcache.tags.occ_percent::total     0.996827                       # Average percentage of cache occupancy
system.cpu.dcache.tags.occ_task_id_blocks::1024         1024                       # Occupied blocks per task id
system.cpu.dcache.tags.age_task_id_blocks_1024::0           55                       # Occupied blocks per task id
system.cpu.dcache.tags.age_task_id_blocks_1024::1          479                       # Occupied blocks per task id
system.cpu.dcache.tags.age_task_id_blocks_1024::2          490                       # Occupied blocks per task id
system.cpu.dcache.tags.occ_task_id_percent::1024            1                       # Percentage of cache occupancy per task id
system.cpu.dcache.tags.tag_accesses          89012751                       # Number of tag accesses
system.cpu.dcache.tags.data_accesses         89012751                       # Number of data accesses
system.cpu.dcache.tags.power_state.pwrStateResidencyTicks::UNDEFINED 498371904000                       # Cumulative time (in ticks) in various power states
system.cpu.dtb.instHits                             0                       # ITB inst hits
system.cpu.dtb.instMisses                           0                       # ITB inst misses
system.cpu.dtb.readHits                             0                       # DTB read hits
system.cpu.dtb.readMisses                           0                       # DTB read misses
system.cpu.dtb.writeHits                            0                       # DTB write hits
system.cpu.dtb.writeMisses                          0                       # DTB write misses
system.cpu.dtb.inserts                              0                       # Number of times an entry is inserted into the TLB
system.cpu.dtb.flushTlb                             0                       # Number of times complete TLB was flushed
system.cpu.dtb.flushTlbMva                          0                       # Number of times TLB was flushed by MVA
system.cpu.dtb.flushTlbMvaAsid                      0                       # Number of times TLB was flushed by MVA & ASID
system.cpu.dtb.flushTlbAsid                         0                       # Number of times TLB was flushed by ASID
system.cpu.dtb.flushedEntries                       0                       # Number of entries that have been flushed from TLB
system.cpu.dtb.alignFaults                          0                       # Number of TLB faults due to alignment restrictions
system.cpu.dtb.prefetchFaults                       0                       # Number of TLB faults due to prefetch
system.cpu.dtb.domainFaults                         0                       # Number of TLB faults due to domain restrictions
system.cpu.dtb.permsFaults                          0                       # Number of TLB faults due to permissions restrictions
system.cpu.dtb.readAccesses                         0                       # DTB read accesses
system.cpu.dtb.writeAccesses                        0                       # DTB write accesses
system.cpu.dtb.instAccesses                         0                       # ITB inst accesses
system.cpu.dtb.hits                                 0                       # Total TLB (inst and data) hits
system.cpu.dtb.misses                               0                       # Total TLB (inst and data) misses
system.cpu.dtb.accesses                             0                       # Total TLB (inst and data) accesses
system.cpu.dtb.stage2_mmu.stage2_tlb.instHits            0                       # ITB inst hits
system.cpu.dtb.stage2_mmu.stage2_tlb.instMisses            0                       # ITB inst misses
system.cpu.dtb.stage2_mmu.stage2_tlb.readHits            0                       # DTB read hits
system.cpu.dtb.stage2_mmu.stage2_tlb.readMisses            0                       # DTB read misses
system.cpu.dtb.stage2_mmu.stage2_tlb.writeHits            0                       # DTB write hits
system.cpu.dtb.stage2_mmu.stage2_tlb.writeMisses            0                       # DTB write misses
system.cpu.dtb.stage2_mmu.stage2_tlb.inserts            0                       # Number of times an entry is inserted into the TLB
system.cpu.dtb.stage2_mmu.stage2_tlb.flushTlb            0                       # Number of times complete TLB was flushed
system.cpu.dtb.stage2_mmu.stage2_tlb.flushTlbMva            0                       # Number of times TLB was flushed by MVA
system.cpu.dtb.stage2_mmu.stage2_tlb.flushTlbMvaAsid            0                       # Number of times TLB was flushed by MVA & ASID
system.cpu.dtb.stage2_mmu.stage2_tlb.flushTlbAsid            0                       # Number of times TLB was flushed by ASID
system.cpu.dtb.stage2_mmu.stage2_tlb.flushedEntries            0                       # Number of entries that have been flushed from TLB
system.cpu.dtb.stage2_mmu.stage2_tlb.alignFaults            0                       # Number of TLB faults due to alignment restrictions
system.cpu.dtb.stage2_mmu.stage2_tlb.prefetchFaults            0                       # Number of TLB faults due to prefetch
system.cpu.dtb.stage2_mmu.stage2_tlb.domainFaults            0                       # Number of TLB faults due to domain restrictions
system.cpu.dtb.stage2_mmu.stage2_tlb.permsFaults            0                       # Number of TLB faults due to permissions restrictions
system.cpu.dtb.stage2_mmu.stage2_tlb.readAccesses            0                       # DTB read accesses
system.cpu.dtb.stage2_mmu.stage2_tlb.writeAccesses            0                       # DTB write accesses
system.cpu.dtb.stage2_mmu.stage2_tlb.instAccesses            0                       # ITB inst accesses
system.cpu.dtb.stage2_mmu.stage2_tlb.hits            0                       # Total TLB (inst and data) hits
system.cpu.dtb.stage2_mmu.stage2_tlb.misses            0                       # Total TLB (inst and data) misses
system.cpu.dtb.stage2_mmu.stage2_tlb.accesses            0                       # Total TLB (inst and data) accesses
system.cpu.dtb.stage2_mmu.stage2_tlb.walker.walks            0                       # Table walker walks requested
system.cpu.dtb.stage2_mmu.stage2_tlb.walker.requestOrigin_Requested::Data            0                       # Table walker requests started/completed, data/inst
system.cpu.dtb.stage2_mmu.stage2_tlb.walker.requestOrigin_Requested::Inst            0                       # Table walker requests started/completed, data/inst
system.cpu.dtb.stage2_mmu.stage2_tlb.walker.requestOrigin_Requested::total            0                       # Table walker requests started/completed, data/inst
system.cpu.dtb.stage2_mmu.stage2_tlb.walker.requestOrigin_Completed::Data            0                       # Table walker requests started/completed, data/inst
system.cpu.dtb.stage2_mmu.stage2_tlb.walker.requestOrigin_Completed::Inst            0                       # Table walker requests started/completed, data/inst
system.cpu.dtb.stage2_mmu.stage2_tlb.walker.requestOrigin_Completed::total            0                       # Table walker requests started/completed, data/inst
system.cpu.dtb.stage2_mmu.stage2_tlb.walker.requestOrigin::total            0                       # Table walker requests started/completed, data/inst
system.cpu.dtb.stage2_mmu.stage2_tlb.walker.power_state.pwrStateResidencyTicks::UNDEFINED 498371904000                       # Cumulative time (in ticks) in various power states
system.cpu.dtb.walker.walks                         0                       # Table walker walks requested
system.cpu.dtb.walker.requestOrigin_Requested::Data            0                       # Table walker requests started/completed, data/inst
system.cpu.dtb.walker.requestOrigin_Requested::Inst            0                       # Table walker requests started/completed, data/inst
system.cpu.dtb.walker.requestOrigin_Requested::total            0                       # Table walker requests started/completed, data/inst
system.cpu.dtb.walker.requestOrigin_Completed::Data            0                       # Table walker requests started/completed, data/inst
system.cpu.dtb.walker.requestOrigin_Completed::Inst            0                       # Table walker requests started/completed, data/inst
system.cpu.dtb.walker.requestOrigin_Completed::total            0                       # Table walker requests started/completed, data/inst
system.cpu.dtb.walker.requestOrigin::total            0                       # Table walker requests started/completed, data/inst
system.cpu.dtb.walker.power_state.pwrStateResidencyTicks::UNDEFINED 498371904000                       # Cumulative time (in ticks) in various power states
system.cpu.fetch2.intInstructions            45071222                       # Number of integer instructions successfully decoded
system.cpu.fetch2.fpInstructions                    0                       # Number of floating point instructions successfully decoded
system.cpu.fetch2.vecInstructions                   0                       # Number of SIMD instructions successfully decoded
system.cpu.fetch2.loadInstructions            2086494                       # Number of memory load instructions successfully decoded
system.cpu.fetch2.storeInstructions            169184                       # Number of memory store instructions successfully decoded
system.cpu.fetch2.amoInstructions                   0                       # Number of memory atomic instructions successfully decoded
system.cpu.icache.demand_hits::.cpu.inst     32052990                       # number of demand (read+write) hits
system.cpu.icache.demand_hits::total         32052990                       # number of demand (read+write) hits
system.cpu.icache.overall_hits::.cpu.inst     32052990                       # number of overall hits
system.cpu.icache.overall_hits::total        32052990                       # number of overall hits
system.cpu.icache.demand_misses::.cpu.inst          408                       # number of demand (read+write) misses
system.cpu.icache.demand_misses::total            408                       # number of demand (read+write) misses
system.cpu.icache.overall_misses::.cpu.inst          408                       # number of overall misses
system.cpu.icache.overall_misses::total           408                       # number of overall misses
system.cpu.icache.demand_miss_latency::.cpu.inst     44320000                       # number of demand (read+write) miss cycles
system.cpu.icache.demand_miss_latency::total     44320000                       # number of demand (read+write) miss cycles
system.cpu.icache.overall_miss_latency::.cpu.inst     44320000                       # number of overall miss cycles
system.cpu.icache.overall_miss_latency::total     44320000                       # number of overall miss cycles
system.cpu.icache.demand_accesses::.cpu.inst     32053398                       # number of demand (read+write) accesses
system.cpu.icache.demand_accesses::total     32053398                       # number of demand (read+write) accesses
system.cpu.icache.overall_accesses::.cpu.inst     32053398                       # number of overall (read+write) accesses
system.cpu.icache.overall_accesses::total     32053398                       # number of overall (read+write) accesses
system.cpu.icache.demand_miss_rate::.cpu.inst     0.000013                       # miss rate for demand accesses
system.cpu.icache.demand_miss_rate::total     0.000013                       # miss rate for demand accesses
system.cpu.icache.overall_miss_rate::.cpu.inst     0.000013                       # miss rate for overall accesses
system.cpu.icache.overall_miss_rate::total     0.000013                       # miss rate for overall accesses
system.cpu.icache.demand_avg_miss_latency::.cpu.inst 108627.450980                       # average overall miss latency
system.cpu.icache.demand_avg_miss_latency::total 108627.450980                       # average overall miss latency
system.cpu.icache.overall_avg_miss_latency::.cpu.inst 108627.450980                       # average overall miss latency
system.cpu.icache.overall_avg_miss_latency::total 108627.450980                       # average overall miss latency
system.cpu.icache.blocked_cycles::no_mshrs            0                       # number of cycles access was blocked
system.cpu.icache.blocked_cycles::no_targets            0                       # number of cycles access was blocked
system.cpu.icache.blocked::no_mshrs                 0                       # number of cycles access was blocked
system.cpu.icache.blocked::no_targets               0                       # number of cycles access was blocked
system.cpu.icache.avg_blocked_cycles::no_mshrs          nan                       # average number of cycles each access was blocked
system.cpu.icache.avg_blocked_cycles::no_targets          nan                       # average number of cycles each access was blocked
system.cpu.icache.writebacks::.writebacks           36                       # number of writebacks
system.cpu.icache.writebacks::total                36                       # number of writebacks
system.cpu.icache.demand_mshr_misses::.cpu.inst          408                       # number of demand (read+write) MSHR misses
system.cpu.icache.demand_mshr_misses::total          408                       # number of demand (read+write) MSHR misses
system.cpu.icache.overall_mshr_misses::.cpu.inst          408                       # number of overall MSHR misses
system.cpu.icache.overall_mshr_misses::total          408                       # number of overall MSHR misses
system.cpu.icache.demand_mshr_miss_latency::.cpu.inst     43504000                       # number of demand (read+write) MSHR miss cycles
system.cpu.icache.demand_mshr_miss_latency::total     43504000                       # number of demand (read+write) MSHR miss cycles
system.cpu.icache.overall_mshr_miss_latency::.cpu.inst     43504000                       # number of overall MSHR miss cycles
system.cpu.icache.overall_mshr_miss_latency::total     43504000                       # number of overall MSHR miss cycles
system.cpu.icache.demand_mshr_miss_rate::.cpu.inst     0.000013                       # mshr miss rate for demand accesses
system.cpu.icache.demand_mshr_miss_rate::total     0.000013                       # mshr miss rate for demand accesses
system.cpu.icache.overall_mshr_miss_rate::.cpu.inst     0.000013                       # mshr miss rate for overall accesses
system.cpu.icache.overall_mshr_miss_rate::total     0.000013                       # mshr miss rate for overall accesses
system.cpu.icache.demand_avg_mshr_miss_latency::.cpu.inst 106627.450980                       # average overall mshr miss latency
system.cpu.icache.demand_avg_mshr_miss_latency::total 106627.450980                       # average overall mshr miss latency
system.cpu.icache.overall_avg_mshr_miss_latency::.cpu.inst 106627.450980                       # average overall mshr miss latency
system.cpu.icache.overall_avg_mshr_miss_latency::total 106627.450980                       # average overall mshr miss latency
system.cpu.icache.replacements                     36                       # number of replacements
system.cpu.icache.ReadReq_hits::.cpu.inst     32052990                       # number of ReadReq hits
system.cpu.icache.ReadReq_hits::total        32052990                       # number of ReadReq hits
system.cpu.icache.ReadReq_misses::.cpu.inst          408                       # number of ReadReq misses
system.cpu.icache.ReadReq_misses::total           408                       # number of ReadReq misses
system.cpu.icache.ReadReq_miss_latency::.cpu.inst     44320000                       # number of ReadReq miss cycles
system.cpu.icache.ReadReq_miss_latency::total     44320000                       # number of ReadReq miss cycles
system.cpu.icache.ReadReq_accesses::.cpu.inst     32053398                       # number of ReadReq accesses(hits+misses)
system.cpu.icache.ReadReq_accesses::total     32053398                       # number of ReadReq accesses(hits+misses)
system.cpu.icache.ReadReq_miss_rate::.cpu.inst     0.000013                       # miss rate for ReadReq accesses
system.cpu.icache.ReadReq_miss_rate::total     0.000013                       # miss rate for ReadReq accesses
system.cpu.icache.ReadReq_avg_miss_latency::.cpu.inst 108627.450980                       # average ReadReq miss latency
system.cpu.icache.ReadReq_avg_miss_latency::total 108627.450980                       # average ReadReq miss latency
system.cpu.icache.ReadReq_mshr_misses::.cpu.inst          408                       # number of ReadReq MSHR misses
system.cpu.icache.ReadReq_mshr_misses::total          408                       # number of ReadReq MSHR misses
system.cpu.icache.ReadReq_mshr_miss_latency::.cpu.inst     43504000                       # number of ReadReq MSHR miss cycles
system.cpu.icache.ReadReq_mshr_miss_latency::total     43504000                       # number of ReadReq MSHR miss cycles
system.cpu.icache.ReadReq_mshr_miss_rate::.cpu.inst     0.000013                       # mshr miss rate for ReadReq accesses
system.cpu.icache.ReadReq_mshr_miss_rate::total     0.000013                       # mshr miss rate for ReadReq accesses
system.cpu.icache.ReadReq_avg_mshr_miss_latency::.cpu.inst 106627.450980                       # average ReadReq mshr miss latency
system.cpu.icache.ReadReq_avg_mshr_miss_latency::total 106627.450980                       # average ReadReq mshr miss latency
system.cpu.icache.power_state.pwrStateResidencyTicks::UNDEFINED 498371904000                       # Cumulative time (in ticks) in various power states
system.cpu.icache.tags.tagsinuse           317.059719                       # Cycle average of tags in use
system.cpu.icache.tags.total_refs            32053398                       # Total number of references to valid blocks.
system.cpu.icache.tags.sampled_refs               408                       # Sample count of references to valid blocks.
system.cpu.icache.tags.avg_refs          78562.250000                       # Average number of references to valid blocks.
system.cpu.icache.tags.warmup_cycle            113000                       # Cycle when the warmup percentage was hit.
system.cpu.icache.tags.occ_blocks::.cpu.inst   317.059719                       # Average occupied blocks per requestor
system.cpu.icache.tags.occ_percent::.cpu.inst     0.309629                       # Average percentage of cache occupancy
system.cpu.icache.tags.occ_percent::total     0.309629                       # Average percentage of cache occupancy
system.cpu.icache.tags.occ_task_id_blocks::1024          372                       # Occupied blocks per task id
system.cpu.icache.tags.age_task_id_blocks_1024::4          372                       # Occupied blocks per task id
system.cpu.icache.tags.occ_task_id_percent::1024     0.363281                       # Percentage of cache occupancy per task id
system.cpu.icache.tags.tag_accesses          32053806                       # Number of tag accesses
system.cpu.icache.tags.data_accesses         32053806                       # Number of data accesses
system.cpu.icache.tags.power_state.pwrStateResidencyTicks::UNDEFINED 498371904000                       # Cumulative time (in ticks) in various power states
system.cpu.itb.instHits                             0                       # ITB inst hits
system.cpu.itb.instMisses                           0                       # ITB inst misses
system.cpu.itb.readHits                             0                       # DTB read hits
system.cpu.itb.readMisses                           0                       # DTB read misses
system.cpu.itb.writeHits                            0                       # DTB write hits
system.cpu.itb.writeMisses                          0                       # DTB write misses
system.cpu.itb.inserts                              0                       # Number of times an entry is inserted into the TLB
system.cpu.itb.flushTlb                             0                       # Number of times complete TLB was flushed
system.cpu.itb.flushTlbMva                          0                       # Number of times TLB was flushed by MVA
system.cpu.itb.flushTlbMvaAsid                      0                       # Number of times TLB was flushed by MVA & ASID
system.cpu.itb.flushTlbAsid                         0                       # Number of times TLB was flushed by ASID
system.cpu.itb.flushedEntries                       0                       # Number of entries that have been flushed from TLB
system.cpu.itb.alignFaults                          0                       # Number of TLB faults due to alignment restrictions
system.cpu.itb.prefetchFaults                       0                       # Number of TLB faults due to prefetch
system.cpu.itb.domainFaults                         0                       # Number of TLB faults due to domain restrictions
system.cpu.itb.permsFaults                          0                       # Number of TLB faults due to permissions restrictions
system.cpu.itb.readAccesses                         0                       # DTB read accesses
system.cpu.itb.writeAccesses                        0                       # DTB write accesses
system.cpu.itb.instAccesses                         0                       # ITB inst accesses
system.cpu.itb.hits                                 0                       # Total TLB (inst and data) hits
system.cpu.itb.misses                               0                       # Total TLB (inst and data) misses
system.cpu.itb.accesses                             0                       # Total TLB (inst and data) accesses
system.cpu.itb.stage2_mmu.stage2_tlb.instHits            0                       # ITB inst hits
system.cpu.itb.stage2_mmu.stage2_tlb.instMisses            0                       # ITB inst misses
system.cpu.itb.stage2_mmu.stage2_tlb.readHits            0                       # DTB read hits
system.cpu.itb.stage2_mmu.stage2_tlb.readMisses            0                       # DTB read misses
system.cpu.itb.stage2_mmu.stage2_tlb.writeHits            0                       # DTB write hits
system.cpu.itb.stage2_mmu.stage2_tlb.writeMisses            0                       # DTB write misses
system.cpu.itb.stage2_mmu.stage2_tlb.inserts            0                       # Number of times an entry is inserted into the TLB
system.cpu.itb.stage2_mmu.stage2_tlb.flushTlb            0                       # Number of times complete TLB was flushed
system.cpu.itb.stage2_mmu.stage2_tlb.flushTlbMva            0                       # Number of times TLB was flushed by MVA
system.cpu.itb.stage2_mmu.stage2_tlb.flushTlbMvaAsid            0                       # Number of times TLB was flushed by MVA & ASID
system.cpu.itb.stage2_mmu.stage2_tlb.flushTlbAsid            0                       # Number of times TLB was flushed by ASID
system.cpu.itb.stage2_mmu.stage2_tlb.flushedEntries            0                       # Number of entries that have been flushed from TLB
system.cpu.itb.stage2_mmu.stage2_tlb.alignFaults            0                       # Number of TLB faults due to alignment restrictions
system.cpu.itb.stage2_mmu.stage2_tlb.prefetchFaults            0                       # Number of TLB faults due to prefetch
system.cpu.itb.stage2_mmu.stage2_tlb.domainFaults            0                       # Number of TLB faults due to domain restrictions
system.cpu.itb.stage2_mmu.stage2_tlb.permsFaults            0                       # Number of TLB faults due to permissions restrictions
system.cpu.itb.stage2_mmu.stage2_tlb.readAccesses            0                       # DTB read accesses
system.cpu.itb.stage2_mmu.stage2_tlb.writeAccesses            0                       # DTB write accesses
system.cpu.itb.stage2_mmu.stage2_tlb.instAccesses            0                       # ITB inst accesses
system.cpu.itb.stage2_mmu.stage2_tlb.hits            0                       # Total TLB (inst and data) hits
system.cpu.itb.stage2_mmu.stage2_tlb.misses            0                       # Total TLB (inst and data) misses
system.cpu.itb.stage2_mmu.stage2_tlb.accesses            0                       # Total TLB (inst and data) accesses
system.cpu.itb.stage2_mmu.stage2_tlb.walker.walks            0                       # Table walker walks requested
system.cpu.itb.stage2_mmu.stage2_tlb.walker.requestOrigin_Requested::Data            0                       # Table walker requests started/completed, data/inst
system.cpu.itb.stage2_mmu.stage2_tlb.walker.requestOrigin_Requested::Inst            0                       # Table walker requests started/completed, data/inst
system.cpu.itb.stage2_mmu.stage2_tlb.walker.requestOrigin_Requested::total            0                       # Table walker requests started/completed, data/inst
system.cpu.itb.stage2_mmu.stage2_tlb.walker.requestOrigin_Completed::Data            0                       # Table walker requests started/completed, data/inst
system.cpu.itb.stage2_mmu.stage2_tlb.walker.requestOrigin_Completed::Inst            0                       # Table walker requests started/completed, data/inst
system.cpu.itb.stage2_mmu.stage2_tlb.walker.requestOrigin_Completed::total            0                       # Table walker requests started/completed, data/inst
system.cpu.itb.stage2_mmu.stage2_tlb.walker.requestOrigin::total            0                       # Table walker requests started/completed, data/inst
system.cpu.itb.stage2_mmu.stage2_tlb.walker.power_state.pwrStateResidencyTicks::UNDEFINED 498371904000                       # Cumulative time (in ticks) in various power states
system.cpu.itb.walker.walks                         0                       # Table walker walks requested
system.cpu.itb.walker.requestOrigin_Requested::Data            0                       # Table walker requests started/completed, data/inst
system.cpu.itb.walker.requestOrigin_Requested::Inst            0                       # Table walker requests started/completed, data/inst
system.cpu.itb.walker.requestOrigin_Requested::total            0                       # Table walker requests started/completed, data/inst
system.cpu.itb.walker.requestOrigin_Completed::Data            0                       # Table walker requests started/completed, data/inst
system.cpu.itb.walker.requestOrigin_Completed::Inst            0                       # Table walker requests started/completed, data/inst
system.cpu.itb.walker.requestOrigin_Completed::total            0                       # Table walker requests started/completed, data/inst
system.cpu.itb.walker.requestOrigin::total            0                       # Table walker requests started/completed, data/inst
system.cpu.itb.walker.power_state.pwrStateResidencyTicks::UNDEFINED 498371904000                       # Cumulative time (in ticks) in various power states
system.cpu.power_state.pwrStateResidencyTicks::ON 498371904000                       # Cumulative time (in ticks) in various power states
system.cpu.thread_0.numInsts                100000001                       # Number of Instructions committed
system.cpu.thread_0.numOps                  184218784                       # Number of Ops committed
system.cpu.thread_0.numMemRefs                      0                       # Number of Memory References
system.cpu_clk_domain.clock                      1000                       # Clock period in ticks
system.cpu_voltage_domain.voltage                   1                       # Voltage in Volts
system.l2.demand_hits::.cpu.inst                   26                       # number of demand (read+write) hits
system.l2.demand_hits::.cpu.data                  425                       # number of demand (read+write) hits
system.l2.demand_hits::total                      451                       # number of demand (read+write) hits
system.l2.overall_hits::.cpu.inst                  26                       # number of overall hits
system.l2.overall_hits::.cpu.data                 425                       # number of overall hits
system.l2.overall_hits::total                     451                       # number of overall hits
system.l2.demand_misses::.cpu.inst                382                       # number of demand (read+write) misses
system.l2.demand_misses::.cpu.data            2631812                       # number of demand (read+write) misses
system.l2.demand_misses::total                2632194                       # number of demand (read+write) misses
system.l2.overall_misses::.cpu.inst               382                       # number of overall misses
system.l2.overall_misses::.cpu.data           2631812                       # number of overall misses
system.l2.overall_misses::total               2632194                       # number of overall misses
system.l2.demand_miss_latency::.cpu.inst     41684000                       # number of demand (read+write) miss cycles
system.l2.demand_miss_latency::.cpu.data 300214548000                       # number of demand (read+write) miss cycles
system.l2.demand_miss_latency::total     300256232000                       # number of demand (read+write) miss cycles
system.l2.overall_miss_latency::.cpu.inst     41684000                       # number of overall miss cycles
system.l2.overall_miss_latency::.cpu.data 300214548000                       # number of overall miss cycles
system.l2.overall_miss_latency::total    300256232000                       # number of overall miss cycles
system.l2.demand_accesses::.cpu.inst              408                       # number of demand (read+write) accesses
system.l2.demand_accesses::.cpu.data          2632237                       # number of demand (read+write) accesses
system.l2.demand_accesses::total              2632645                       # number of demand (read+write) accesses
system.l2.overall_accesses::.cpu.inst             408                       # number of overall (read+write) accesses
system.l2.overall_accesses::.cpu.data         2632237                       # number of overall (read+write) accesses
system.l2.overall_accesses::total             2632645                       # number of overall (read+write) accesses
system.l2.demand_miss_rate::.cpu.inst        0.936275                       # miss rate for demand accesses
system.l2.demand_miss_rate::.cpu.data        0.999839                       # miss rate for demand accesses
system.l2.demand_miss_rate::total            0.999829                       # miss rate for demand accesses
system.l2.overall_miss_rate::.cpu.inst       0.936275                       # miss rate for overall accesses
system.l2.overall_miss_rate::.cpu.data       0.999839                       # miss rate for overall accesses
system.l2.overall_miss_rate::total           0.999829                       # miss rate for overall accesses
system.l2.demand_avg_miss_latency::.cpu.inst 109120.418848                       # average overall miss latency
system.l2.demand_avg_miss_latency::.cpu.data 114071.426075                       # average overall miss latency
system.l2.demand_avg_miss_latency::total 114070.707554                       # average overall miss latency
system.l2.overall_avg_miss_latency::.cpu.inst 109120.418848                       # average overall miss latency
system.l2.overall_avg_miss_latency::.cpu.data 114071.426075                       # average overall miss latency
system.l2.overall_avg_miss_latency::total 114070.707554                       # average overall miss latency
system.l2.blocked_cycles::no_mshrs                  0                       # number of cycles access was blocked
system.l2.blocked_cycles::no_targets                0                       # number of cycles access was blocked
system.l2.blocked::no_mshrs                         0                       # number of cycles access was blocked
system.l2.blocked::no_targets                       0                       # number of cycles access was blocked
system.l2.avg_blocked_cycles::no_mshrs            nan                       # average number of cycles each access was blocked
system.l2.avg_blocked_cycles::no_targets          nan                       # average number of cycles each access was blocked
system.l2.writebacks::.writebacks             2598860                       # number of writebacks
system.l2.writebacks::total                   2598860                       # number of writebacks
system.l2.demand_mshr_hits::.cpu.inst               1                       # number of demand (read+write) MSHR hits
system.l2.demand_mshr_hits::.cpu.data               7                       # number of demand (read+write) MSHR hits
system.l2.demand_mshr_hits::total                   8                       # number of demand (read+write) MSHR hits
system.l2.overall_mshr_hits::.cpu.inst              1                       # number of overall MSHR hits
system.l2.overall_mshr_hits::.cpu.data              7                       # number of overall MSHR hits
system.l2.overall_mshr_hits::total                  8                       # number of overall MSHR hits
system.l2.demand_mshr_misses::.cpu.inst           381                       # number of demand (read+write) MSHR misses
system.l2.demand_mshr_misses::.cpu.data       2631805                       # number of demand (read+write) MSHR misses
system.l2.demand_mshr_misses::total           2632186                       # number of demand (read+write) MSHR misses
system.l2.overall_mshr_misses::.cpu.inst          381                       # number of overall MSHR misses
system.l2.overall_mshr_misses::.cpu.data      2631805                       # number of overall MSHR misses
system.l2.overall_mshr_misses::total          2632186                       # number of overall MSHR misses
system.l2.demand_mshr_miss_latency::.cpu.inst     33970000                       # number of demand (read+write) MSHR miss cycles
system.l2.demand_mshr_miss_latency::.cpu.data 247577847000                       # number of demand (read+write) MSHR miss cycles
system.l2.demand_mshr_miss_latency::total 247611817000                       # number of demand (read+write) MSHR miss cycles
system.l2.overall_mshr_miss_latency::.cpu.inst     33970000                       # number of overall MSHR miss cycles
system.l2.overall_mshr_miss_latency::.cpu.data 247577847000                       # number of overall MSHR miss cycles
system.l2.overall_mshr_miss_latency::total 247611817000                       # number of overall MSHR miss cycles
system.l2.demand_mshr_miss_rate::.cpu.inst     0.933824                       # mshr miss rate for demand accesses
system.l2.demand_mshr_miss_rate::.cpu.data     0.999836                       # mshr miss rate for demand accesses
system.l2.demand_mshr_miss_rate::total       0.999826                       # mshr miss rate for demand accesses
system.l2.overall_mshr_miss_rate::.cpu.inst     0.933824                       # mshr miss rate for overall accesses
system.l2.overall_mshr_miss_rate::.cpu.data     0.999836                       # mshr miss rate for overall accesses
system.l2.overall_mshr_miss_rate::total      0.999826                       # mshr miss rate for overall accesses
system.l2.demand_avg_mshr_miss_latency::.cpu.inst 89160.104987                       # average overall mshr miss latency
system.l2.demand_avg_mshr_miss_latency::.cpu.data 94071.501118                       # average overall mshr miss latency
system.l2.demand_avg_mshr_miss_latency::total 94070.790210                       # average overall mshr miss latency
system.l2.overall_avg_mshr_miss_latency::.cpu.inst 89160.104987                       # average overall mshr miss latency
system.l2.overall_avg_mshr_miss_latency::.cpu.data 94071.501118                       # average overall mshr miss latency
system.l2.overall_avg_mshr_miss_latency::total 94070.790210                       # average overall mshr miss latency
system.l2.replacements                        2599428                       # number of replacements
system.l2.WritebackDirty_hits::.writebacks      2630958                       # number of WritebackDirty hits
system.l2.WritebackDirty_hits::total          2630958                       # number of WritebackDirty hits
system.l2.WritebackDirty_accesses::.writebacks      2630958                       # number of WritebackDirty accesses(hits+misses)
system.l2.WritebackDirty_accesses::total      2630958                       # number of WritebackDirty accesses(hits+misses)
system.l2.WritebackClean_hits::.writebacks           35                       # number of WritebackClean hits
system.l2.WritebackClean_hits::total               35                       # number of WritebackClean hits
system.l2.WritebackClean_accesses::.writebacks           35                       # number of WritebackClean accesses(hits+misses)
system.l2.WritebackClean_accesses::total           35                       # number of WritebackClean accesses(hits+misses)
system.l2.ReadExReq_hits::.cpu.data               201                       # number of ReadExReq hits
system.l2.ReadExReq_hits::total                   201                       # number of ReadExReq hits
system.l2.ReadExReq_misses::.cpu.data         2631607                       # number of ReadExReq misses
system.l2.ReadExReq_misses::total             2631607                       # number of ReadExReq misses
system.l2.ReadExReq_miss_latency::.cpu.data 300191444000                       # number of ReadExReq miss cycles
system.l2.ReadExReq_miss_latency::total  300191444000                       # number of ReadExReq miss cycles
system.l2.ReadExReq_accesses::.cpu.data       2631808                       # number of ReadExReq accesses(hits+misses)
system.l2.ReadExReq_accesses::total           2631808                       # number of ReadExReq accesses(hits+misses)
system.l2.ReadExReq_miss_rate::.cpu.data     0.999924                       # miss rate for ReadExReq accesses
system.l2.ReadExReq_miss_rate::total         0.999924                       # miss rate for ReadExReq accesses
system.l2.ReadExReq_avg_miss_latency::.cpu.data 114071.532717                       # average ReadExReq miss latency
system.l2.ReadExReq_avg_miss_latency::total 114071.532717                       # average ReadExReq miss latency
system.l2.ReadExReq_mshr_misses::.cpu.data      2631607                       # number of ReadExReq MSHR misses
system.l2.ReadExReq_mshr_misses::total        2631607                       # number of ReadExReq MSHR misses
system.l2.ReadExReq_mshr_miss_latency::.cpu.data 247559304000                       # number of ReadExReq MSHR miss cycles
system.l2.ReadExReq_mshr_miss_latency::total 247559304000                       # number of ReadExReq MSHR miss cycles
system.l2.ReadExReq_mshr_miss_rate::.cpu.data     0.999924                       # mshr miss rate for ReadExReq accesses
system.l2.ReadExReq_mshr_miss_rate::total     0.999924                       # mshr miss rate for ReadExReq accesses
system.l2.ReadExReq_avg_mshr_miss_latency::.cpu.data 94071.532717                       # average ReadExReq mshr miss latency
system.l2.ReadExReq_avg_mshr_miss_latency::total 94071.532717                       # average ReadExReq mshr miss latency
system.l2.ReadCleanReq_hits::.cpu.inst             26                       # number of ReadCleanReq hits
system.l2.ReadCleanReq_hits::total                 26                       # number of ReadCleanReq hits
system.l2.ReadCleanReq_misses::.cpu.inst          382                       # number of ReadCleanReq misses
system.l2.ReadCleanReq_misses::total              382                       # number of ReadCleanReq misses
system.l2.ReadCleanReq_miss_latency::.cpu.inst     41684000                       # number of ReadCleanReq miss cycles
system.l2.ReadCleanReq_miss_latency::total     41684000                       # number of ReadCleanReq miss cycles
system.l2.ReadCleanReq_accesses::.cpu.inst          408                       # number of ReadCleanReq accesses(hits+misses)
system.l2.ReadCleanReq_accesses::total            408                       # number of ReadCleanReq accesses(hits+misses)
system.l2.ReadCleanReq_miss_rate::.cpu.inst     0.936275                       # miss rate for ReadCleanReq accesses
system.l2.ReadCleanReq_miss_rate::total      0.936275                       # miss rate for ReadCleanReq accesses
system.l2.ReadCleanReq_avg_miss_latency::.cpu.inst 109120.418848                       # average ReadCleanReq miss latency
system.l2.ReadCleanReq_avg_miss_latency::total 109120.418848                       # average ReadCleanReq miss latency
system.l2.ReadCleanReq_mshr_hits::.cpu.inst            1                       # number of ReadCleanReq MSHR hits
system.l2.ReadCleanReq_mshr_hits::total             1                       # number of ReadCleanReq MSHR hits
system.l2.ReadCleanReq_mshr_misses::.cpu.inst          381                       # number of ReadCleanReq MSHR misses
system.l2.ReadCleanReq_mshr_misses::total          381                       # number of ReadCleanReq MSHR misses
system.l2.ReadCleanReq_mshr_miss_latency::.cpu.inst     33970000                       # number of ReadCleanReq MSHR miss cycles
system.l2.ReadCleanReq_mshr_miss_latency::total     33970000                       # number of ReadCleanReq MSHR miss cycles
system.l2.ReadCleanReq_mshr_miss_rate::.cpu.inst     0.933824                       # mshr miss rate for ReadCleanReq accesses
system.l2.ReadCleanReq_mshr_miss_rate::total     0.933824                       # mshr miss rate for ReadCleanReq accesses
system.l2.ReadCleanReq_avg_mshr_miss_latency::.cpu.inst 89160.104987                       # average ReadCleanReq mshr miss latency
system.l2.ReadCleanReq_avg_mshr_miss_latency::total 89160.104987                       # average ReadCleanReq mshr miss latency
system.l2.ReadSharedReq_hits::.cpu.data           224                       # number of ReadSharedReq hits
system.l2.ReadSharedReq_hits::total               224                       # number of ReadSharedReq hits
system.l2.ReadSharedReq_misses::.cpu.data          205                       # number of ReadSharedReq misses
system.l2.ReadSharedReq_misses::total             205                       # number of ReadSharedReq misses
system.l2.ReadSharedReq_miss_latency::.cpu.data     23104000                       # number of ReadSharedReq miss cycles
system.l2.ReadSharedReq_miss_latency::total     23104000                       # number of ReadSharedReq miss cycles
system.l2.ReadSharedReq_accesses::.cpu.data          429                       # number of ReadSharedReq accesses(hits+misses)
system.l2.ReadSharedReq_accesses::total           429                       # number of ReadSharedReq accesses(hits+misses)
system.l2.ReadSharedReq_miss_rate::.cpu.data     0.477855                       # miss rate for ReadSharedReq accesses
system.l2.ReadSharedReq_miss_rate::total     0.477855                       # miss rate for ReadSharedReq accesses
system.l2.ReadSharedReq_avg_miss_latency::.cpu.data 112702.439024                       # average ReadSharedReq miss latency
system.l2.ReadSharedReq_avg_miss_latency::total 112702.439024                       # average ReadSharedReq miss latency
system.l2.ReadSharedReq_mshr_hits::.cpu.data            7                       # number of ReadSharedReq MSHR hits
system.l2.ReadSharedReq_mshr_hits::total            7                       # number of ReadSharedReq MSHR hits
system.l2.ReadSharedReq_mshr_misses::.cpu.data          198                       # number of ReadSharedReq MSHR misses
system.l2.ReadSharedReq_mshr_misses::total          198                       # number of ReadSharedReq MSHR misses
system.l2.ReadSharedReq_mshr_miss_latency::.cpu.data     18543000                       # number of ReadSharedReq MSHR miss cycles
system.l2.ReadSharedReq_mshr_miss_latency::total     18543000                       # number of ReadSharedReq MSHR miss cycles
system.l2.ReadSharedReq_mshr_miss_rate::.cpu.data     0.461538                       # mshr miss rate for ReadSharedReq accesses
system.l2.ReadSharedReq_mshr_miss_rate::total     0.461538                       # mshr miss rate for ReadSharedReq accesses
system.l2.ReadSharedReq_avg_mshr_miss_latency::.cpu.data 93651.515152                       # average ReadSharedReq mshr miss latency
system.l2.ReadSharedReq_avg_mshr_miss_latency::total 93651.515152                       # average ReadSharedReq mshr miss latency
system.l2.power_state.pwrStateResidencyTicks::UNDEFINED 498371904000                       # Cumulative time (in ticks) in various power states
system.l2.tags.tagsinuse                 32227.007952                       # Cycle average of tags in use
system.l2.tags.total_refs                     5263821                       # Total number of references to valid blocks.
system.l2.tags.sampled_refs                   2632196                       # Sample count of references to valid blocks.
system.l2.tags.avg_refs                      1.999783                       # Average number of references to valid blocks.
system.l2.tags.warmup_cycle                     92000                       # Cycle when the warmup percentage was hit.
system.l2.tags.occ_blocks::.writebacks       0.100834                       # Average occupied blocks per requestor
system.l2.tags.occ_blocks::.cpu.inst         6.385148                       # Average occupied blocks per requestor
system.l2.tags.occ_blocks::.cpu.data     32220.521969                       # Average occupied blocks per requestor
system.l2.tags.occ_percent::.writebacks      0.000003                       # Average percentage of cache occupancy
system.l2.tags.occ_percent::.cpu.inst        0.000195                       # Average percentage of cache occupancy
system.l2.tags.occ_percent::.cpu.data        0.983292                       # Average percentage of cache occupancy
system.l2.tags.occ_percent::total            0.983490                       # Average percentage of cache occupancy
system.l2.tags.occ_task_id_blocks::1024         32768                       # Occupied blocks per task id
system.l2.tags.age_task_id_blocks_1024::0           55                       # Occupied blocks per task id
system.l2.tags.age_task_id_blocks_1024::1          479                       # Occupied blocks per task id
system.l2.tags.age_task_id_blocks_1024::2         4808                       # Occupied blocks per task id
system.l2.tags.age_task_id_blocks_1024::3        27426                       # Occupied blocks per task id
system.l2.tags.occ_task_id_percent::1024            1                       # Percentage of cache occupancy per task id
system.l2.tags.tag_accesses                  13159854                       # Number of tag accesses
system.l2.tags.data_accesses                 13159854                       # Number of data accesses
system.l2.tags.power_state.pwrStateResidencyTicks::UNDEFINED 498371904000                       # Cumulative time (in ticks) in various power states
system.mem_ctrls.avgPriority_.writebacks::samples   5197720.00                       # Average QoS priority value for accepted requests
system.mem_ctrls.avgPriority_.cpu.inst::samples       762.00                       # Average QoS priority value for accepted requests
system.mem_ctrls.avgPriority_.cpu.data::samples   5263610.00                       # Average QoS priority value for accepted requests
system.mem_ctrls.priorityMinLatency      0.000000018750                       # per QoS priority minimum request to response latency (s)
system.mem_ctrls.priorityMaxLatency      0.000376716500                       # per QoS priority maximum request to response latency (s)
system.mem_ctrls.numReadWriteTurnArounds       289082                       # Number of turnarounds from READ to WRITE
system.mem_ctrls.numWriteReadTurnArounds       289082                       # Number of turnarounds from WRITE to READ
system.mem_ctrls.numStayReadState            10397919                       # Number of times bus staying in READ state
system.mem_ctrls.numStayWriteState            4921387                       # Number of times bus staying in WRITE state
system.mem_ctrls.readReqs                     2632186                       # Number of read requests accepted
system.mem_ctrls.writeReqs                    2598860                       # Number of write requests accepted
system.mem_ctrls.readBursts                   5264372                       # Number of controller read bursts, including those serviced by the write queue
system.mem_ctrls.writeBursts                  5197720                       # Number of controller write bursts, including those merged in the write queue
system.mem_ctrls.servicedByWrQ                      0                       # Number of controller read bursts serviced by the write queue
system.mem_ctrls.mergedWrBursts                     0                       # Number of controller write bursts merged with an existing one
system.mem_ctrls.neitherReadNorWriteReqs            0                       # Number of requests that are neither read nor write
system.mem_ctrls.avgRdQLen                       2.00                       # Average read queue length when enqueuing
system.mem_ctrls.avgWrQLen                      25.05                       # Average write queue length when enqueuing
system.mem_ctrls.numRdRetry                         0                       # Number of times read queue was full causing retry
system.mem_ctrls.numWrRetry                         0                       # Number of times write queue was full causing retry
system.mem_ctrls.readPktSize::0                     0                       # Read request sizes (log2)
system.mem_ctrls.readPktSize::1                     0                       # Read request sizes (log2)
system.mem_ctrls.readPktSize::2                     0                       # Read request sizes (log2)
system.mem_ctrls.readPktSize::3                     0                       # Read request sizes (log2)
system.mem_ctrls.readPktSize::4                     0                       # Read request sizes (log2)
system.mem_ctrls.readPktSize::5                     0                       # Read request sizes (log2)
system.mem_ctrls.readPktSize::6               5264372                       # Read request sizes (log2)
system.mem_ctrls.readPktSize::7                     0                       # Read request sizes (log2)
system.mem_ctrls.writePktSize::0                    0                       # Write request sizes (log2)
system.mem_ctrls.writePktSize::1                    0                       # Write request sizes (log2)
system.mem_ctrls.writePktSize::2                    0                       # Write request sizes (log2)
system.mem_ctrls.writePktSize::3                    0                       # Write request sizes (log2)
system.mem_ctrls.writePktSize::4                    0                       # Write request sizes (log2)
system.mem_ctrls.writePktSize::5                    0                       # Write request sizes (log2)
system.mem_ctrls.writePktSize::6              5197720                       # Write request sizes (log2)
system.mem_ctrls.writePktSize::7                    0                       # Write request sizes (log2)
system.mem_ctrls.rdQLenPdf::0                 2632014                       # What read queue length does an incoming req see
system.mem_ctrls.rdQLenPdf::1                 2632016                       # What read queue length does an incoming req see
system.mem_ctrls.rdQLenPdf::2                     164                       # What read queue length does an incoming req see
system.mem_ctrls.rdQLenPdf::3                     163                       # What read queue length does an incoming req see
system.mem_ctrls.rdQLenPdf::4                       8                       # What read queue length does an incoming req see
system.mem_ctrls.rdQLenPdf::5                       7                       # What read queue length does an incoming req see
system.mem_ctrls.rdQLenPdf::6                       0                       # What read queue length does an incoming req see
system.mem_ctrls.rdQLenPdf::7                       0                       # What read queue length does an incoming req see
system.mem_ctrls.rdQLenPdf::8                       0                       # What read queue length does an incoming req see
[...]
system.mem_ctrls.dram.bw_write::.writebacks    667481608                       # Write bandwidth from this memory (bytes/s)
system.mem_ctrls.dram.bw_write::total       667481608                       # Write bandwidth from this memory (bytes/s)
system.mem_ctrls.dram.bw_total::.writebacks    667481608                       # Total bandwidth to/from this memory (bytes/s)
system.mem_ctrls.dram.bw_total::.cpu.inst        97855                       # Total bandwidth to/from this memory (bytes/s)
system.mem_ctrls.dram.bw_total::.cpu.data    675943080                       # Total bandwidth to/from this memory (bytes/s)
system.mem_ctrls.dram.bw_total::total      1343522543                       # Total bandwidth to/from this memory (bytes/s)
system.mem_ctrls.dram.readBursts              5264372                       # Number of DRAM read bursts
system.mem_ctrls.dram.writeBursts             5197701                       # Number of DRAM write bursts
system.mem_ctrls.dram.perBankRdBursts::0       328954                       # Per bank write bursts
system.mem_ctrls.dram.perBankRdBursts::1       329134                       # Per bank write bursts
system.mem_ctrls.dram.perBankRdBursts::2       329114                       # Per bank write bursts
system.mem_ctrls.dram.perBankRdBursts::3       329104                       # Per bank write bursts
system.mem_ctrls.dram.perBankRdBursts::4       329018                       # Per bank write bursts
system.mem_ctrls.dram.perBankRdBursts::5       329106                       # Per bank write bursts
system.mem_ctrls.dram.perBankRdBursts::6       329110                       # Per bank write bursts
system.mem_ctrls.dram.perBankRdBursts::7       329046                       # Per bank write bursts
system.mem_ctrls.dram.perBankRdBursts::8       328916                       # Per bank write bursts
system.mem_ctrls.dram.perBankRdBursts::9       328882                       # Per bank write bursts
system.mem_ctrls.dram.perBankRdBursts::10       328924                       # Per bank write bursts
system.mem_ctrls.dram.perBankRdBursts::11       328942                       # Per bank write bursts
system.mem_ctrls.dram.perBankRdBursts::12       329062                       # Per bank write bursts
system.mem_ctrls.dram.perBankRdBursts::13       329058                       # Per bank write bursts
system.mem_ctrls.dram.perBankRdBursts::14       329036                       # Per bank write bursts
system.mem_ctrls.dram.perBankRdBursts::15       328966                       # Per bank write bursts
system.mem_ctrls.dram.perBankWrBursts::0       324754                       # Per bank write bursts
system.mem_ctrls.dram.perBankWrBursts::1       324916                       # Per bank write bursts
system.mem_ctrls.dram.perBankWrBursts::2       324921                       # Per bank write bursts
system.mem_ctrls.dram.perBankWrBursts::3       324976                       # Per bank write bursts
system.mem_ctrls.dram.perBankWrBursts::4       324894                       # Per bank write bursts
system.mem_ctrls.dram.perBankWrBursts::5       324950                       # Per bank write bursts
system.mem_ctrls.dram.perBankWrBursts::6       324950                       # Per bank write bursts
system.mem_ctrls.dram.perBankWrBursts::7       324924                       # Per bank write bursts
system.mem_ctrls.dram.perBankWrBursts::8       324738                       # Per bank write bursts
system.mem_ctrls.dram.perBankWrBursts::9       324736                       # Per bank write bursts
system.mem_ctrls.dram.perBankWrBursts::10       324736                       # Per bank write bursts
system.mem_ctrls.dram.perBankWrBursts::11       324800                       # Per bank write bursts
system.mem_ctrls.dram.perBankWrBursts::12       324878                       # Per bank write bursts
system.mem_ctrls.dram.perBankWrBursts::13       324872                       # Per bank write bursts
system.mem_ctrls.dram.perBankWrBursts::14       324824                       # Per bank write bursts
system.mem_ctrls.dram.perBankWrBursts::15       324832                       # Per bank write bursts
system.mem_ctrls.dram.totQLat            112935739750                       # Total ticks spent queuing
system.mem_ctrls.dram.totBusLat           26321860000                       # Total ticks spent in databus transfers
system.mem_ctrls.dram.totMemAccLat       211642714750                       # Total ticks spent from burst creation until serviced by the DRAM
system.mem_ctrls.dram.avgQLat                21452.84                       # Average queueing delay per DRAM burst
system.mem_ctrls.dram.avgBusLat               5000.00                       # Average bus latency per DRAM burst
system.mem_ctrls.dram.avgMemAccLat           40202.84                       # Average memory access latency per DRAM burst
system.mem_ctrls.dram.readRowHits             4675435                       # Number of row buffer hits during reads
system.mem_ctrls.dram.writeRowHits            4617526                       # Number of row buffer hits during writes
system.mem_ctrls.dram.readRowHitRate            88.81                       # Row buffer hit rate for reads
system.mem_ctrls.dram.writeRowHitRate           88.84                       # Row buffer hit rate for writes
system.mem_ctrls.dram.bytesPerActivate::samples      1169111                       # Bytes accessed per row activation
system.mem_ctrls.dram.bytesPerActivate::mean   572.719285                       # Bytes accessed per row activation
system.mem_ctrls.dram.bytesPerActivate::gmean   379.917745                       # Bytes accessed per row activation
system.mem_ctrls.dram.bytesPerActivate::stdev   420.031312                       # Bytes accessed per row activation
system.mem_ctrls.dram.bytesPerActivate::0-127        19667      1.68%      1.68% # Bytes accessed per row activation
system.mem_ctrls.dram.bytesPerActivate::128-255       471609     40.34%     42.02% # Bytes accessed per row activation
system.mem_ctrls.dram.bytesPerActivate::256-383        40980      3.51%     45.53% # Bytes accessed per row activation
system.mem_ctrls.dram.bytesPerActivate::384-511        32769      2.80%     48.33% # Bytes accessed per row activation
system.mem_ctrls.dram.bytesPerActivate::512-639        28864      2.47%     50.80% # Bytes accessed per row activation
system.mem_ctrls.dram.bytesPerActivate::640-767        28647      2.45%     53.25% # Bytes accessed per row activation
system.mem_ctrls.dram.bytesPerActivate::768-895        32805      2.81%     56.05% # Bytes accessed per row activation
system.mem_ctrls.dram.bytesPerActivate::896-1023        32107      2.75%     58.80% # Bytes accessed per row activation
system.mem_ctrls.dram.bytesPerActivate::1024-1151       481663     41.20%    100.00% # Bytes accessed per row activation
system.mem_ctrls.dram.bytesPerActivate::total      1169111                       # Bytes accessed per row activation
system.mem_ctrls.dram.bytesRead             336919808                       # Total number of bytes read from DRAM
system.mem_ctrls.dram.bytesWritten          332652864                       # Total number of bytes written to DRAM
system.mem_ctrls.dram.avgRdBW              676.040935                       # Average DRAM read bandwidth in MiBytes/s
system.mem_ctrls.dram.avgWrBW              667.479168                       # Average DRAM write bandwidth in MiBytes/s
system.mem_ctrls.dram.peakBW                 12800.00                       # Theoretical peak bandwidth in MiByte/s
system.mem_ctrls.dram.busUtil                   10.50                       # Data bus utilization in percentage
system.mem_ctrls.dram.busUtilRead                5.28                       # Data bus utilization in percentage for reads
system.mem_ctrls.dram.busUtilWrite               5.21                       # Data bus utilization in percentage for writes
system.mem_ctrls.dram.pageHitRate               88.83                       # Row buffer hit rate, read and write combined
system.mem_ctrls.dram.power_state.pwrStateResidencyTicks::UNDEFINED 498371904000                       # Cumulative time (in ticks) in various power states
system.mem_ctrls.dram.rank0.actEnergy      4174158240                       # Energy for activate commands per rank (pJ)
system.mem_ctrls.dram.rank0.preEnergy      2218613925                       # Energy for precharge commands per rank (pJ)
system.mem_ctrls.dram.rank0.readEnergy    18796664040                       # Energy for read commands per rank (pJ)
system.mem_ctrls.dram.rank0.writeEnergy   13568267700                       # Energy for write commands per rank (pJ)
system.mem_ctrls.dram.rank0.refreshEnergy 39340647840.000008                       # Energy for refresh commands per rank (pJ)
system.mem_ctrls.dram.rank0.actBackEnergy 115804878210                       # Energy for active background per rank (pJ)
system.mem_ctrls.dram.rank0.preBackEnergy  93854914080                       # Energy for precharge background per rank (pJ)
system.mem_ctrls.dram.rank0.actPowerDownEnergy            0                       # Energy for active power-down per rank (pJ)
system.mem_ctrls.dram.rank0.prePowerDownEnergy            0                       # Energy for precharge power-down per rank (pJ)
system.mem_ctrls.dram.rank0.selfRefreshEnergy            0                       # Energy for self refresh per rank (pJ)
system.mem_ctrls.dram.rank0.totalEnergy  287758144035                       # Total energy per rank (pJ)
system.mem_ctrls.dram.rank0.averagePower   577.396402                       # Core power per rank (mW)
system.mem_ctrls.dram.rank0.totalIdleTime            0                       # Total Idle time Per DRAM Rank
system.mem_ctrls.dram.rank0.pwrStateTime::IDLE 239001624250                       # Time in different power states
system.mem_ctrls.dram.rank0.pwrStateTime::REF  16641560000                       # Time in different power states
system.mem_ctrls.dram.rank0.pwrStateTime::SREF            0                       # Time in different power states
system.mem_ctrls.dram.rank0.pwrStateTime::PRE_PDN            0                       # Time in different power states
system.mem_ctrls.dram.rank0.pwrStateTime::ACT 242728719750                       # Time in different power states
system.mem_ctrls.dram.rank0.pwrStateTime::ACT_PDN            0                       # Time in different power states
system.mem_ctrls.dram.rank1.actEnergy      4173301440                       # Energy for activate commands per rank (pJ)
system.mem_ctrls.dram.rank1.preEnergy      2218162320                       # Energy for precharge commands per rank (pJ)
system.mem_ctrls.dram.rank1.readEnergy    18790952040                       # Energy for read commands per rank (pJ)
system.mem_ctrls.dram.rank1.writeEnergy   13563731520                       # Energy for write commands per rank (pJ)
system.mem_ctrls.dram.rank1.refreshEnergy 39340647840.000008                       # Energy for refresh commands per rank (pJ)
system.mem_ctrls.dram.rank1.actBackEnergy 115824799710                       # Energy for active background per rank (pJ)
system.mem_ctrls.dram.rank1.preBackEnergy  93838138080                       # Energy for precharge background per rank (pJ)
system.mem_ctrls.dram.rank1.actPowerDownEnergy            0                       # Energy for active power-down per rank (pJ)
system.mem_ctrls.dram.rank1.prePowerDownEnergy            0                       # Energy for precharge power-down per rank (pJ)
system.mem_ctrls.dram.rank1.selfRefreshEnergy            0                       # Energy for self refresh per rank (pJ)
system.mem_ctrls.dram.rank1.totalEnergy  287749732950                       # Total energy per rank (pJ)
system.mem_ctrls.dram.rank1.averagePower   577.379524                       # Core power per rank (mW)
system.mem_ctrls.dram.rank1.totalIdleTime            0                       # Total Idle time Per DRAM Rank
system.mem_ctrls.dram.rank1.pwrStateTime::IDLE 238963969500                       # Time in different power states
system.mem_ctrls.dram.rank1.pwrStateTime::REF  16641560000                       # Time in different power states
system.mem_ctrls.dram.rank1.pwrStateTime::SREF            0                       # Time in different power states
system.mem_ctrls.dram.rank1.pwrStateTime::PRE_PDN            0                       # Time in different power states
system.mem_ctrls.dram.rank1.pwrStateTime::ACT 242766374500                       # Time in different power states
system.mem_ctrls.dram.rank1.pwrStateTime::ACT_PDN            0                       # Time in different power states
system.mem_ctrls.power_state.pwrStateResidencyTicks::UNDEFINED 498371904000                       # Cumulative time (in ticks) in various power states
system.membus.trans_dist::ReadResp                579                       # Transaction distribution
system.membus.trans_dist::WritebackDirty      2598860                       # Transaction distribution
system.membus.trans_dist::CleanEvict              171                       # Transaction distribution
system.membus.trans_dist::ReadExReq           2631607                       # Transaction distribution
system.membus.trans_dist::ReadExResp          2631607                       # Transaction distribution
system.membus.trans_dist::ReadSharedReq           579                       # Transaction distribution
system.membus.pkt_count_system.l2.mem_side_port::system.mem_ctrls.port      7863403                       # Packet count per connected requestor and responder (bytes)
system.membus.pkt_count::total                7863403                       # Packet count per connected requestor and responder (bytes)
system.membus.pkt_size_system.l2.mem_side_port::system.mem_ctrls.port    669573888                       # Cumulative packet size per connected requestor and responder (bytes)
system.membus.pkt_size::total               669573888                       # Cumulative packet size per connected requestor and responder (bytes)
system.membus.snoops                                0                       # Total snoops (count)
system.membus.snoopTraffic                          0                       # Total snoop traffic (bytes)
system.membus.snoop_fanout::samples           2632186                       # Request fanout histogram
system.membus.snoop_fanout::mean                    0                       # Request fanout histogram
system.membus.snoop_fanout::stdev                   0                       # Request fanout histogram
system.membus.snoop_fanout::underflows              0      0.00%      0.00% # Request fanout histogram
system.membus.snoop_fanout::0                 2632186    100.00%    100.00% # Request fanout histogram
system.membus.snoop_fanout::1                       0      0.00%    100.00% # Request fanout histogram
system.membus.snoop_fanout::overflows               0      0.00%    100.00% # Request fanout histogram
system.membus.snoop_fanout::min_value               0                       # Request fanout histogram
system.membus.snoop_fanout::max_value               0                       # Request fanout histogram
system.membus.snoop_fanout::total             2632186                       # Request fanout histogram
system.membus.power_state.pwrStateResidencyTicks::UNDEFINED 498371904000                       # Cumulative time (in ticks) in various power states
system.membus.reqLayer0.occupancy         26022097000                       # Layer occupancy (ticks)
system.membus.reqLayer0.utilization               5.2                       # Layer utilization (%)
system.membus.respLayer1.occupancy        24419013750                       # Layer occupancy (ticks)
system.membus.respLayer1.utilization              4.9                       # Layer utilization (%)
system.tol2bus.trans_dist::ReadResp               837                       # Transaction distribution
system.tol2bus.trans_dist::WritebackDirty      5229818                       # Transaction distribution
system.tol2bus.trans_dist::WritebackClean           36                       # Transaction distribution
system.tol2bus.trans_dist::CleanEvict             823                       # Transaction distribution
system.tol2bus.trans_dist::ReadExReq          2631808                       # Transaction distribution
system.tol2bus.trans_dist::ReadExResp         2631808                       # Transaction distribution
system.tol2bus.trans_dist::ReadCleanReq           408                       # Transaction distribution
system.tol2bus.trans_dist::ReadSharedReq          429                       # Transaction distribution
system.tol2bus.pkt_count_system.cpu.icache.mem_side_port::system.l2.cpu_side_port          852                       # Packet count per connected requestor and responder (bytes)
system.tol2bus.pkt_count_system.cpu.dcache.mem_side_port::system.l2.cpu_side_port      7895687                       # Packet count per connected requestor and responder (bytes)
system.tol2bus.pkt_count::total               7896539                       # Packet count per connected requestor and responder (bytes)
system.tol2bus.pkt_size_system.cpu.icache.mem_side_port::system.l2.cpu_side_port        56832                       # Cumulative packet size per connected requestor and responder (bytes)
system.tol2bus.pkt_size_system.cpu.dcache.mem_side_port::system.l2.cpu_side_port    673688960                       # Cumulative packet size per connected requestor and responder (bytes)
system.tol2bus.pkt_size::total              673745792                       # Cumulative packet size per connected requestor and responder (bytes)
system.tol2bus.snoops                         2599428                       # Total snoops (count)
system.tol2bus.snoopTraffic                 332654080                       # Total snoop traffic (bytes)
system.tol2bus.snoop_fanout::samples          5232073                       # Request fanout histogram
system.tol2bus.snoop_fanout::mean            0.000088                       # Request fanout histogram
system.tol2bus.snoop_fanout::stdev           0.009396                       # Request fanout histogram
system.tol2bus.snoop_fanout::underflows             0      0.00%      0.00% # Request fanout histogram
system.tol2bus.snoop_fanout::0                5231611     99.99%     99.99% # Request fanout histogram
system.tol2bus.snoop_fanout::1                    462      0.01%    100.00% # Request fanout histogram
system.tol2bus.snoop_fanout::2                      0      0.00%    100.00% # Request fanout histogram
system.tol2bus.snoop_fanout::overflows              0      0.00%    100.00% # Request fanout histogram
system.tol2bus.snoop_fanout::min_value              0                       # Request fanout histogram
system.tol2bus.snoop_fanout::max_value              1                       # Request fanout histogram
system.tol2bus.snoop_fanout::total            5232073                       # Request fanout histogram
system.tol2bus.power_state.pwrStateResidencyTicks::UNDEFINED 498371904000                       # Cumulative time (in ticks) in various power states
system.tol2bus.reqLayer0.occupancy        15787870000                       # Layer occupancy (ticks)
system.tol2bus.reqLayer0.utilization              3.2                       # Layer utilization (%)
system.tol2bus.respLayer0.occupancy           2040999                       # Layer occupancy (ticks)
system.tol2bus.respLayer0.utilization             0.0                       # Layer utilization (%)
system.tol2bus.respLayer1.occupancy       13161191993                       # Layer occupancy (ticks)
system.tol2bus.respLayer1.utilization             2.6                       # Layer utilization (%)
system.voltage_domain.voltage                       1                       # Voltage in Volts

---------- End Simulation Statistics   ----------
