
---------- Begin Simulation Statistics ----------
final_tick                               265139792000                       # Number of ticks from beginning of simulation (restored from checkpoints and never reset)
host_inst_rate                                 192503                       # Simulator instruction rate (inst/s)
host_mem_usage                                 655100                       # Number of bytes of host memory used
host_op_rate                                   192510                       # Simulator op (including micro ops) rate (op/s)
host_seconds                                   519.47                       # Real time elapsed on the host
host_tick_rate                              510401285                       # Simulator tick rate (ticks/s)
sim_freq                                 1000000000000                       # Frequency of simulated ticks
sim_insts                                   100000000                       # Number of instructions simulated
sim_ops                                     100003676                       # Number of ops (including micro ops) simulated
sim_seconds                                  0.265140                       # Number of seconds simulated
sim_ticks                                265139792000                       # Number of ticks simulated
system.cpu.committedInsts                   100000000                       # Number of instructions committed
system.cpu.committedOps                     100003676                       # Number of ops (including micro ops) committed
system.cpu.cpi                               2.651398                       # CPI: cycles per instruction
system.cpu.discardedOps                         21226                       # Number of ops (including micro ops) which were discarded before commit
system.cpu.idleCycles                       147720003                       # Total number of cycles that the object has spent stopped
system.cpu.ipc                               0.377160                       # IPC: instructions per cycle
system.cpu.numCycles                        265139792                       # number of cpu cycles simulated
system.cpu.numFetchSuspends                         0                       # Number of times Execute suspended instruction fetching
system.cpu.numWorkItemsCompleted                    0                       # number of work items this cpu completed
system.cpu.numWorkItemsStarted                      0                       # number of work items this cpu started
system.cpu.op_class_0::No_OpClass                   0      0.00%      0.00% # Class of committed instruction
system.cpu.op_class_0::IntAlu                49995472     49.99%     49.99% # Class of committed instruction
system.cpu.op_class_0::IntMult                     88      0.00%     49.99% # Class of committed instruction
system.cpu.op_class_0::IntDiv                       0      0.00%     49.99% # Class of committed instruction
system.cpu.op_class_0::FloatAdd                     0      0.00%     49.99% # Class of committed instruction
system.cpu.op_class_0::FloatCmp                     0      0.00%     49.99% # Class of committed instruction
system.cpu.op_class_0::FloatCvt                     0      0.00%     49.99% # Class of committed instruction
system.cpu.op_class_0::FloatMult                    0      0.00%     49.99% # Class of committed instruction
system.cpu.op_class_0::FloatMultAcc                 0      0.00%     49.99% # Class of committed instruction
system.cpu.op_class_0::FloatDiv                     0      0.00%     49.99% # Class of committed instruction
system.cpu.op_class_0::FloatMisc                    0      0.00%     49.99% # Class of committed instruction
system.cpu.op_class_0::FloatSqrt                    0      0.00%     49.99% # Class of committed instruction
system.cpu.op_class_0::SimdAdd                      0      0.00%     49.99% # Class of committed instruction
system.cpu.op_class_0::SimdAddAcc                   0      0.00%     49.99% # Class of committed instruction
system.cpu.op_class_0::SimdAlu                      0      0.00%     49.99% # Class of committed instruction
system.cpu.op_class_0::SimdCmp                      0      0.00%     49.99% # Class of committed instruction
system.cpu.op_class_0::SimdCvt                      0      0.00%     49.99% # Class of committed instruction
system.cpu.op_class_0::SimdMisc                     0      0.00%     49.99% # Class of committed instruction
system.cpu.op_class_0::SimdMult                     0      0.00%     49.99% # Class of committed instruction
system.cpu.op_class_0::SimdMultAcc                  0      0.00%     49.99% # Class of committed instruction
system.cpu.op_class_0::SimdShift                    0      0.00%     49.99% # Class of committed instruction
system.cpu.op_class_0::SimdShiftAcc                 0      0.00%     49.99% # Class of committed instruction
system.cpu.op_class_0::SimdDiv                      0      0.00%     49.99% # Class of committed instruction
system.cpu.op_class_0::SimdSqrt                     0      0.00%     49.99% # Class of committed instruction
system.cpu.op_class_0::SimdFloatAdd                 0      0.00%     49.99% # Class of committed instruction
system.cpu.op_class_0::SimdFloatAlu                 0      0.00%     49.99% # Class of committed instruction
system.cpu.op_class_0::SimdFloatCmp                 2      0.00%     49.99% # Class of committed instruction
system.cpu.op_class_0::SimdFloatCvt                 0      0.00%     49.99% # Class of committed instruction
system.cpu.op_class_0::SimdFloatDiv                 0      0.00%     49.99% # Class of committed instruction
system.cpu.op_class_0::SimdFloatMisc               22      0.00%     49.99% # Class of committed instruction
system.cpu.op_class_0::SimdFloatMult                0      0.00%     49.99% # Class of committed instruction
system.cpu.op_class_0::SimdFloatMultAcc             0      0.00%     49.99% # Class of committed instruction
system.cpu.op_class_0::SimdFloatSqrt                0      0.00%     49.99% # Class of committed instruction
system.cpu.op_class_0::SimdReduceAdd                0      0.00%     49.99% # Class of committed instruction
system.cpu.op_class_0::SimdReduceAlu                0      0.00%     49.99% # Class of committed instruction
system.cpu.op_class_0::SimdReduceCmp                0      0.00%     49.99% # Class of committed instruction
system.cpu.op_class_0::SimdFloatReduceAdd            0      0.00%     49.99% # Class of committed instruction
system.cpu.op_class_0::SimdFloatReduceCmp            0      0.00%     49.99% # Class of committed instruction
system.cpu.op_class_0::SimdAes                      0      0.00%     49.99% # Class of committed instruction
system.cpu.op_class_0::SimdAesMix                   0      0.00%     49.99% # Class of committed instruction
system.cpu.op_class_0::SimdSha1Hash                 0      0.00%     49.99% # Class of committed instruction
system.cpu.op_class_0::SimdSha1Hash2                0      0.00%     49.99% # Class of committed instruction
system.cpu.op_class_0::SimdSha256Hash               0      0.00%     49.99% # Class of committed instruction
system.cpu.op_class_0::SimdSha256Hash2              0      0.00%     49.99% # Class of committed instruction
system.cpu.op_class_0::SimdShaSigma2                0      0.00%     49.99% # Class of committed instruction
system.cpu.op_class_0::SimdShaSigma3                0      0.00%     49.99% # Class of committed instruction
system.cpu.op_class_0::SimdPredAlu                  0      0.00%     49.99% # Class of committed instruction
system.cpu.op_class_0::MemRead               36892238     36.89%     86.88% # Class of committed instruction
system.cpu.op_class_0::MemWrite              13115854     13.12%    100.00% # Class of committed instruction
system.cpu.op_class_0::FloatMemRead                 0      0.00%    100.00% # Class of committed instruction
system.cpu.op_class_0::FloatMemWrite                0      0.00%    100.00% # Class of committed instruction
system.cpu.op_class_0::IprAccess                    0      0.00%    100.00% # Class of committed instruction
system.cpu.op_class_0::InstPrefetch                 0      0.00%    100.00% # Class of committed instruction
system.cpu.op_class_0::total                100003676                       # Class of committed instruction
system.cpu.tickCycles                       117419789                       # Number of cycles that the object actually ticked
system.cpu.workload.numSyscalls                    19                       # Number of system calls
system.membus.snoop_filter.hit_multi_requests            0                       # Number of requests hitting in the snoop filter with multiple (>1) holders of the requested data.
system.membus.snoop_filter.hit_multi_snoops            0                       # Number of snoops hitting in the snoop filter with multiple (>1) holders of the requested data.
system.membus.snoop_filter.hit_single_requests      1480429                       # Number of requests hitting in the snoop filter with a single holder of the requested data.
system.membus.snoop_filter.hit_single_snoops            0                       # Number of snoops hitting in the snoop filter with a single holder of the requested data.
system.membus.snoop_filter.tot_requests       2968541                       # Total number of requests made to the snoop filter.
system.membus.snoop_filter.tot_snoops               0                       # Total number of snoops made to the snoop filter.
system.tol2bus.snoop_filter.hit_multi_requests        11656                       # Number of requests hitting in the snoop filter with multiple (>1) holders of the requested data.
system.tol2bus.snoop_filter.hit_multi_snoops          910                       # Number of snoops hitting in the snoop filter with multiple (>1) holders of the requested data.
system.tol2bus.snoop_filter.hit_single_requests      1528019                       # Number of requests hitting in the snoop filter with a single holder of the requested data.
system.tol2bus.snoop_filter.hit_single_snoops         2758                       # Number of snoops hitting in the snoop filter with a single holder of the requested data.
system.tol2bus.snoop_filter.tot_requests      3056950                       # Total number of requests made to the snoop filter.
system.tol2bus.snoop_filter.tot_snoops           3668                       # Total number of snoops made to the snoop filter.
system.clk_domain.clock                          1000                       # Clock period in ticks
system.cpu.branchPred.lookups                  606621                       # Number of BP lookups
system.cpu.branchPred.condPredicted            604542                       # Number of conditional branches predicted
system.cpu.branchPred.condIncorrect               825                       # Number of conditional branches incorrect
system.cpu.branchPred.BTBLookups               602563                       # Number of BTB lookups
system.cpu.branchPred.BTBHits                  601467                       # Number of BTB hits
system.cpu.branchPred.BTBHitPct             99.818110                       # BTB Hit Percentage
system.cpu.branchPred.RASUsed                     557                       # Number of times the RAS was used to get a target.
system.cpu.branchPred.RASIncorrect                  1                       # Number of incorrect RAS predictions.
system.cpu.branchPred.indirectLookups             367                       # Number of indirect predictor lookups.
system.cpu.branchPred.indirectHits                174                       # Number of indirect target hits.
system.cpu.branchPred.indirectMisses              193                       # Number of indirect misses.
system.cpu.branchPred.indirectMispredicted          101                       # Number of mispredicted indirect branches.
system.cpu.dcache.demand_hits::.cpu.data     45762582                       # number of demand (read+write) hits
system.cpu.dcache.demand_hits::total         45762582                       # number of demand (read+write) hits
system.cpu.dcache.overall_hits::.cpu.data     45762617                       # number of overall hits
system.cpu.dcache.overall_hits::total        45762617                       # number of overall hits
system.cpu.dcache.demand_misses::.cpu.data      3032570                       # number of demand (read+write) misses
system.cpu.dcache.demand_misses::total        3032570                       # number of demand (read+write) misses
system.cpu.dcache.overall_misses::.cpu.data      3032588                       # number of overall misses
system.cpu.dcache.overall_misses::total       3032588                       # number of overall misses
system.cpu.dcache.demand_miss_latency::.cpu.data 304952437000                       # number of demand (read+write) miss cycles
system.cpu.dcache.demand_miss_latency::total 304952437000                       # number of demand (read+write) miss cycles
system.cpu.dcache.overall_miss_latency::.cpu.data 304952437000                       # number of overall miss cycles
system.cpu.dcache.overall_miss_latency::total 304952437000                       # number of overall miss cycles
system.cpu.dcache.demand_accesses::.cpu.data     48795152                       # number of demand (read+write) accesses
system.cpu.dcache.demand_accesses::total     48795152                       # number of demand (read+write) accesses
system.cpu.dcache.overall_accesses::.cpu.data     48795205                       # number of overall (read+write) accesses
system.cpu.dcache.overall_accesses::total     48795205                       # number of overall (read+write) accesses
system.cpu.dcache.demand_miss_rate::.cpu.data     0.062149                       # miss rate for demand accesses
system.cpu.dcache.demand_miss_rate::total     0.062149                       # miss rate for demand accesses
system.cpu.dcache.overall_miss_rate::.cpu.data     0.062149                       # miss rate for overall accesses
system.cpu.dcache.overall_miss_rate::total     0.062149                       # miss rate for overall accesses
system.cpu.dcache.demand_avg_miss_latency::.cpu.data 100559.075965                       # average overall miss latency
system.cpu.dcache.demand_avg_miss_latency::total 100559.075965                       # average overall miss latency
system.cpu.dcache.overall_avg_miss_latency::.cpu.data 100558.479094                       # average overall miss latency
system.cpu.dcache.overall_avg_miss_latency::total 100558.479094                       # average overall miss latency
system.cpu.dcache.blocked_cycles::no_mshrs            0                       # number of cycles access was blocked
system.cpu.dcache.blocked_cycles::no_targets            0                       # number of cycles access was blocked
system.cpu.dcache.blocked::no_mshrs                 0                       # number of cycles access was blocked
system.cpu.dcache.blocked::no_targets               0                       # number of cycles access was blocked
system.cpu.dcache.avg_blocked_cycles::no_mshrs          nan                       # average number of cycles each access was blocked
system.cpu.dcache.avg_blocked_cycles::no_targets          nan                       # average number of cycles each access was blocked
system.cpu.dcache.writebacks::.writebacks      1516069                       # number of writebacks
system.cpu.dcache.writebacks::total           1516069                       # number of writebacks
system.cpu.dcache.demand_mshr_hits::.cpu.data      1504263                       # number of demand (read+write) MSHR hits
system.cpu.dcache.demand_mshr_hits::total      1504263                       # number of demand (read+write) MSHR hits
system.cpu.dcache.overall_mshr_hits::.cpu.data      1504263                       # number of overall MSHR hits
system.cpu.dcache.overall_mshr_hits::total      1504263                       # number of overall MSHR hits
system.cpu.dcache.demand_mshr_misses::.cpu.data      1528307                       # number of demand (read+write) MSHR misses
system.cpu.dcache.demand_mshr_misses::total      1528307                       # number of demand (read+write) MSHR misses
system.cpu.dcache.overall_mshr_misses::.cpu.data      1528322                       # number of overall MSHR misses
system.cpu.dcache.overall_mshr_misses::total      1528322                       # number of overall MSHR misses
system.cpu.dcache.demand_mshr_miss_latency::.cpu.data 158014722000                       # number of demand (read+write) MSHR miss cycles
system.cpu.dcache.demand_mshr_miss_latency::total 158014722000                       # number of demand (read+write) MSHR miss cycles
system.cpu.dcache.overall_mshr_miss_latency::.cpu.data 158016129000                       # number of overall MSHR miss cycles
system.cpu.dcache.overall_mshr_miss_latency::total 158016129000                       # number of overall MSHR miss cycles
system.cpu.dcache.demand_mshr_miss_rate::.cpu.data     0.031321                       # mshr miss rate for demand accesses
system.cpu.dcache.demand_mshr_miss_rate::total     0.031321                       # mshr miss rate for demand accesses
system.cpu.dcache.overall_mshr_miss_rate::.cpu.data     0.031321                       # mshr miss rate for overall accesses
system.cpu.dcache.overall_mshr_miss_rate::total     0.031321                       # mshr miss rate for overall accesses
system.cpu.dcache.demand_avg_mshr_miss_latency::.cpu.data 103392.003047                       # average overall mshr miss latency
system.cpu.dcache.demand_avg_mshr_miss_latency::total 103392.003047                       # average overall mshr miss latency
system.cpu.dcache.overall_avg_mshr_miss_latency::.cpu.data 103391.908904                       # average overall mshr miss latency
system.cpu.dcache.overall_avg_mshr_miss_latency::total 103391.908904                       # average overall mshr miss latency
system.cpu.dcache.replacements                1527810                       # number of replacements
system.cpu.dcache.ReadReq_hits::.cpu.data     35679258                       # number of ReadReq hits
system.cpu.dcache.ReadReq_hits::total        35679258                       # number of ReadReq hits
system.cpu.dcache.ReadReq_misses::.cpu.data        23385                       # number of ReadReq misses
system.cpu.dcache.ReadReq_misses::total         23385                       # number of ReadReq misses
system.cpu.dcache.ReadReq_miss_latency::.cpu.data   1150531000                       # number of ReadReq miss cycles
system.cpu.dcache.ReadReq_miss_latency::total   1150531000                       # number of ReadReq miss cycles
system.cpu.dcache.ReadReq_accesses::.cpu.data     35702643                       # number of ReadReq accesses(hits+misses)
system.cpu.dcache.ReadReq_accesses::total     35702643                       # number of ReadReq accesses(hits+misses)
system.cpu.dcache.ReadReq_miss_rate::.cpu.data     0.000655                       # miss rate for ReadReq accesses
system.cpu.dcache.ReadReq_miss_rate::total     0.000655                       # miss rate for ReadReq accesses
system.cpu.dcache.ReadReq_avg_miss_latency::.cpu.data 49199.529613                       # average ReadReq miss latency
system.cpu.dcache.ReadReq_avg_miss_latency::total 49199.529613                       # average ReadReq miss latency
system.cpu.dcache.ReadReq_mshr_hits::.cpu.data            8                       # number of ReadReq MSHR hits
system.cpu.dcache.ReadReq_mshr_hits::total            8                       # number of ReadReq MSHR hits
system.cpu.dcache.ReadReq_mshr_misses::.cpu.data        23377                       # number of ReadReq MSHR misses
system.cpu.dcache.ReadReq_mshr_misses::total        23377                       # number of ReadReq MSHR misses
system.cpu.dcache.ReadReq_mshr_miss_latency::.cpu.data   1103156000                       # number of ReadReq MSHR miss cycles
system.cpu.dcache.ReadReq_mshr_miss_latency::total   1103156000                       # number of ReadReq MSHR miss cycles
system.cpu.dcache.ReadReq_mshr_miss_rate::.cpu.data     0.000655                       # mshr miss rate for ReadReq accesses
system.cpu.dcache.ReadReq_mshr_miss_rate::total     0.000655                       # mshr miss rate for ReadReq accesses
system.cpu.dcache.ReadReq_avg_mshr_miss_latency::.cpu.data 47189.801942                       # average ReadReq mshr miss latency
system.cpu.dcache.ReadReq_avg_mshr_miss_latency::total 47189.801942                       # average ReadReq mshr miss latency
system.cpu.dcache.WriteReq_hits::.cpu.data     10083324                       # number of WriteReq hits
system.cpu.dcache.WriteReq_hits::total       10083324                       # number of WriteReq hits
system.cpu.dcache.WriteReq_misses::.cpu.data      3009185                       # number of WriteReq misses
system.cpu.dcache.WriteReq_misses::total      3009185                       # number of WriteReq misses
system.cpu.dcache.WriteReq_miss_latency::.cpu.data 303801906000                       # number of WriteReq miss cycles
system.cpu.dcache.WriteReq_miss_latency::total 303801906000                       # number of WriteReq miss cycles
system.cpu.dcache.WriteReq_accesses::.cpu.data     13092509                       # number of WriteReq accesses(hits+misses)
system.cpu.dcache.WriteReq_accesses::total     13092509                       # number of WriteReq accesses(hits+misses)
system.cpu.dcache.WriteReq_miss_rate::.cpu.data     0.229840                       # miss rate for WriteReq accesses
system.cpu.dcache.WriteReq_miss_rate::total     0.229840                       # miss rate for WriteReq accesses
system.cpu.dcache.WriteReq_avg_miss_latency::.cpu.data 100958.201639                       # average WriteReq miss latency
system.cpu.dcache.WriteReq_avg_miss_latency::total 100958.201639                       # average WriteReq miss latency
system.cpu.dcache.WriteReq_mshr_hits::.cpu.data      1504255                       # number of WriteReq MSHR hits
system.cpu.dcache.WriteReq_mshr_hits::total      1504255                       # number of WriteReq MSHR hits
system.cpu.dcache.WriteReq_mshr_misses::.cpu.data      1504930                       # number of WriteReq MSHR misses
system.cpu.dcache.WriteReq_mshr_misses::total      1504930                       # number of WriteReq MSHR misses
system.cpu.dcache.WriteReq_mshr_miss_latency::.cpu.data 156911566000                       # number of WriteReq MSHR miss cycles
system.cpu.dcache.WriteReq_mshr_miss_latency::total 156911566000                       # number of WriteReq MSHR miss cycles
system.cpu.dcache.WriteReq_mshr_miss_rate::.cpu.data     0.114946                       # mshr miss rate for WriteReq accesses
system.cpu.dcache.WriteReq_mshr_miss_rate::total     0.114946                       # mshr miss rate for WriteReq accesses
system.cpu.dcache.WriteReq_avg_mshr_miss_latency::.cpu.data 104265.026280                       # average WriteReq mshr miss latency
system.cpu.dcache.WriteReq_avg_mshr_miss_latency::total 104265.026280                       # average WriteReq mshr miss latency
system.cpu.dcache.SoftPFReq_hits::.cpu.data           35                       # number of SoftPFReq hits
system.cpu.dcache.SoftPFReq_hits::total            35                       # number of SoftPFReq hits
system.cpu.dcache.SoftPFReq_misses::.cpu.data           18                       # number of SoftPFReq misses
system.cpu.dcache.SoftPFReq_misses::total           18                       # number of SoftPFReq misses
system.cpu.dcache.SoftPFReq_accesses::.cpu.data           53                       # number of SoftPFReq accesses(hits+misses)
system.cpu.dcache.SoftPFReq_accesses::total           53                       # number of SoftPFReq accesses(hits+misses)
system.cpu.dcache.SoftPFReq_miss_rate::.cpu.data     0.339623                       # miss rate for SoftPFReq accesses
system.cpu.dcache.SoftPFReq_miss_rate::total     0.339623                       # miss rate for SoftPFReq accesses
system.cpu.dcache.SoftPFReq_mshr_misses::.cpu.data           15                       # number of SoftPFReq MSHR misses
system.cpu.dcache.SoftPFReq_mshr_misses::total           15                       # number of SoftPFReq MSHR misses
system.cpu.dcache.SoftPFReq_mshr_miss_latency::.cpu.data      1407000                       # number of SoftPFReq MSHR miss cycles
system.cpu.dcache.SoftPFReq_mshr_miss_latency::total      1407000                       # number of SoftPFReq MSHR miss cycles
system.cpu.dcache.SoftPFReq_mshr_miss_rate::.cpu.data     0.283019                       # mshr miss rate for SoftPFReq accesses
system.cpu.dcache.SoftPFReq_mshr_miss_rate::total     0.283019                       # mshr miss rate for SoftPFReq accesses
system.cpu.dcache.SoftPFReq_avg_mshr_miss_latency::.cpu.data        93800                       # average SoftPFReq mshr miss latency
system.cpu.dcache.SoftPFReq_avg_mshr_miss_latency::total        93800                       # average SoftPFReq mshr miss latency
system.cpu.dcache.LoadLockedReq_hits::.cpu.data           14                       # number of LoadLockedReq hits
system.cpu.dcache.LoadLockedReq_hits::total           14                       # number of LoadLockedReq hits
system.cpu.dcache.LoadLockedReq_accesses::.cpu.data           14                       # number of LoadLockedReq accesses(hits+misses)
system.cpu.dcache.LoadLockedReq_accesses::total           14                       # number of LoadLockedReq accesses(hits+misses)
system.cpu.dcache.StoreCondReq_hits::.cpu.data           14                       # number of StoreCondReq hits
system.cpu.dcache.StoreCondReq_hits::total           14                       # number of StoreCondReq hits
system.cpu.dcache.StoreCondReq_accesses::.cpu.data           14                       # number of StoreCondReq accesses(hits+misses)
system.cpu.dcache.StoreCondReq_accesses::total           14                       # number of StoreCondReq accesses(hits+misses)
system.cpu.dcache.power_state.pwrStateResidencyTicks::UNDEFINED 265139792000                       # Cumulative time (in ticks) in various power states
system.cpu.dcache.tags.tagsinuse           511.806360                       # Cycle average of tags in use
system.cpu.dcache.tags.total_refs            47290967                       # Total number of references to valid blocks.
system.cpu.dcache.tags.sampled_refs           1528322                       # Sample count of references to valid blocks.
system.cpu.dcache.tags.avg_refs             30.943065                       # Average number of references to valid blocks.
system.cpu.dcache.tags.warmup_cycle            223000                       # Cycle when the warmup percentage was hit.
system.cpu.dcache.tags.occ_blocks::.cpu.data   511.806360                       # Average occupied blocks per requestor
system.cpu.dcache.tags.occ_percent::.cpu.data     0.999622                       # Average percentage of cache occupancy
system.cpu.dcache.tags.occ_percent::total     0.999622                       # Average percentage of cache occupancy
system.cpu.dcache.tags.occ_task_id_blocks::1024          512                       # Occupied blocks per task id
system.cpu.dcache.tags.age_task_id_blocks_1024::0           56                       # Occupied blocks per task id
system.cpu.dcache.tags.age_task_id_blocks_1024::1          456                       # Occupied blocks per task id
system.cpu.dcache.tags.occ_task_id_percent::1024            1                       # Percentage of cache occupancy per task id
system.cpu.dcache.tags.tag_accesses          50323555                       # Number of tag accesses
system.cpu.dcache.tags.data_accesses         50323555                       # Number of data accesses
system.cpu.dcache.tags.power_state.pwrStateResidencyTicks::UNDEFINED 265139792000                       # Cumulative time (in ticks) in various power states
system.cpu.dtb.instHits                             0                       # ITB inst hits
system.cpu.dtb.instMisses                           0                       # ITB inst misses
system.cpu.dtb.readHits                             0                       # DTB read hits
system.cpu.dtb.readMisses                           0                       # DTB read misses
system.cpu.dtb.writeHits                            0                       # DTB write hits
system.cpu.dtb.writeMisses                          0                       # DTB write misses
system.cpu.dtb.inserts                              0                       # Number of times an entry is inserted into the TLB
system.cpu.dtb.flushTlb                             0                       # Number of times complete TLB was flushed
system.cpu.dtb.flushTlbMva                          0                       # Number of times TLB was flushed by MVA
system.cpu.dtb.flushTlbMvaAsid                      0                       # Number of times TLB was flushed by MVA & ASID
system.cpu.dtb.flushTlbAsid                         0                       # Number of times TLB was flushed by ASID
system.cpu.dtb.flushedEntries                       0                       # Number of entries that have been flushed from TLB
system.cpu.dtb.alignFaults                          0                       # Number of TLB faults due to alignment restrictions
system.cpu.dtb.prefetchFaults                       0                       # Number of TLB faults due to prefetch
system.cpu.dtb.domainFaults                         0                       # Number of TLB faults due to domain restrictions
system.cpu.dtb.permsFaults                          0                       # Number of TLB faults due to permissions restrictions
system.cpu.dtb.readAccesses                         0                       # DTB read accesses
system.cpu.dtb.writeAccesses                        0                       # DTB write accesses
system.cpu.dtb.instAccesses                         0                       # ITB inst accesses
system.cpu.dtb.hits                                 0                       # Total TLB (inst and data) hits
system.cpu.dtb.misses                               0                       # Total TLB (inst and data) misses
system.cpu.dtb.accesses                             0                       # Total TLB (inst and data) accesses
system.cpu.dtb.stage2_mmu.stage2_tlb.instHits            0                       # ITB inst hits
system.cpu.dtb.stage2_mmu.stage2_tlb.instMisses            0                       # ITB inst misses
system.cpu.dtb.stage2_mmu.stage2_tlb.readHits            0                       # DTB read hits
system.cpu.dtb.stage2_mmu.stage2_tlb.readMisses            0                       # DTB read misses
system.cpu.dtb.stage2_mmu.stage2_tlb.writeHits            0                       # DTB write hits
system.cpu.dtb.stage2_mmu.stage2_tlb.writeMisses            0                       # DTB write misses
system.cpu.dtb.stage2_mmu.stage2_tlb.inserts            0                       # Number of times an entry is inserted into the TLB
system.cpu.dtb.stage2_mmu.stage2_tlb.flushTlb            0                       # Number of times complete TLB was flushed
system.cpu.dtb.stage2_mmu.stage2_tlb.flushTlbMva            0                       # Number of times TLB was flushed by MVA
system.cpu.dtb.stage2_mmu.stage2_tlb.flushTlbMvaAsid            0                       # Number of times TLB was flushed by MVA & ASID
system.cpu.dtb.stage2_mmu.stage2_tlb.flushTlbAsid            0                       # Number of times TLB was flushed by ASID
system.cpu.dtb.stage2_mmu.stage2_tlb.flushedEntries            0                       # Number of entries that have been flushed from TLB
system.cpu.dtb.stage2_mmu.stage2_tlb.alignFaults            0                       # Number of TLB faults due to alignment restrictions
system.cpu.dtb.stage2_mmu.stage2_tlb.prefetchFaults            0                       # Number of TLB faults due to prefetch
system.cpu.dtb.stage2_mmu.stage2_tlb.domainFaults            0                       # Number of TLB faults due to domain restrictions
system.cpu.dtb.stage2_mmu.stage2_tlb.permsFaults            0                       # Number of TLB faults due to permissions restrictions
system.cpu.dtb.stage2_mmu.stage2_tlb.readAccesses            0                       # DTB read accesses
system.cpu.dtb.stage2_mmu.stage2_tlb.writeAccesses            0                       # DTB write accesses
system.cpu.dtb.stage2_mmu.stage2_tlb.instAccesses            0                       # ITB inst accesses
system.cpu.dtb.stage2_mmu.stage2_tlb.hits            0                       # Total TLB (inst and data) hits
system.cpu.dtb.stage2_mmu.stage2_tlb.misses            0                       # Total TLB (inst and data) misses
system.cpu.dtb.stage2_mmu.stage2_tlb.accesses            0                       # Total TLB (inst and data) accesses
system.cpu.dtb.stage2_mmu.stage2_tlb.walker.walks            0                       # Table walker walks requested
system.cpu.dtb.stage2_mmu.stage2_tlb.walker.requestOrigin_Requested::Data            0                       # Table walker requests started/completed, data/inst
system.cpu.dtb.stage2_mmu.stage2_tlb.walker.requestOrigin_Requested::Inst            0                       # Table walker requests started/completed, data/inst
system.cpu.dtb.stage2_mmu.stage2_tlb.walker.requestOrigin_Requested::total            0                       # Table walker requests started/completed, data/inst
system.cpu.dtb.stage2_mmu.stage2_tlb.walker.requestOrigin_Completed::Data            0                       # Table walker requests started/completed, data/inst
system.cpu.dtb.stage2_mmu.stage2_tlb.walker.requestOrigin_Completed::Inst            0                       # Table walker requests started/completed, data/inst
system.cpu.dtb.stage2_mmu.stage2_tlb.walker.requestOrigin_Completed::total            0                       # Table walker requests started/completed, data/inst
system.cpu.dtb.stage2_mmu.stage2_tlb.walker.requestOrigin::total            0                       # Table walker requests started/completed, data/inst
system.cpu.dtb.stage2_mmu.stage2_tlb.walker.power_state.pwrStateResidencyTicks::UNDEFINED 265139792000                       # Cumulative time (in ticks) in various power states
system.cpu.dtb.walker.walks                         0                       # Table walker walks requested
system.cpu.dtb.walker.requestOrigin_Requested::Data            0                       # Table walker requests started/completed, data/inst
system.cpu.dtb.walker.requestOrigin_Requested::Inst            0                       # Table walker requests started/completed, data/inst
system.cpu.dtb.walker.requestOrigin_Requested::total            0                       # Table walker requests started/completed, data/inst
system.cpu.dtb.walker.requestOrigin_Completed::Data            0                       # Table walker requests started/completed, data/inst
system.cpu.dtb.walker.requestOrigin_Completed::Inst            0                       # Table walker requests started/completed, data/inst
system.cpu.dtb.walker.requestOrigin_Completed::total            0                       # Table walker requests started/completed, data/inst
system.cpu.dtb.walker.requestOrigin::total            0                       # Table walker requests started/completed, data/inst
system.cpu.dtb.walker.power_state.pwrStateResidencyTicks::UNDEFINED 265139792000                       # Cumulative time (in ticks) in various power states
system.cpu.fetch2.intInstructions            49669945                       # Number of integer instructions successfully decoded
system.cpu.fetch2.fpInstructions                    0                       # Number of floating point instructions successfully decoded
system.cpu.fetch2.vecInstructions                   0                       # Number of SIMD instructions successfully decoded
system.cpu.fetch2.loadInstructions           37092305                       # Number of memory load instructions successfully decoded
system.cpu.fetch2.storeInstructions          13161121                       # Number of memory store instructions successfully decoded
system.cpu.fetch2.amoInstructions                   0                       # Number of memory atomic instructions successfully decoded
system.cpu.icache.demand_hits::.cpu.inst      6045976                       # number of demand (read+write) hits
system.cpu.icache.demand_hits::total          6045976                       # number of demand (read+write) hits
system.cpu.icache.overall_hits::.cpu.inst      6045976                       # number of overall hits
system.cpu.icache.overall_hits::total         6045976                       # number of overall hits
system.cpu.icache.demand_misses::.cpu.inst          610                       # number of demand (read+write) misses
system.cpu.icache.demand_misses::total            610                       # number of demand (read+write) misses
system.cpu.icache.overall_misses::.cpu.inst          610                       # number of overall misses
system.cpu.icache.overall_misses::total           610                       # number of overall misses
system.cpu.icache.demand_miss_latency::.cpu.inst     54022000                       # number of demand (read+write) miss cycles
system.cpu.icache.demand_miss_latency::total     54022000                       # number of demand (read+write) miss cycles
system.cpu.icache.overall_miss_latency::.cpu.inst     54022000                       # number of overall miss cycles
system.cpu.icache.overall_miss_latency::total     54022000                       # number of overall miss cycles
system.cpu.icache.demand_accesses::.cpu.inst      6046586                       # number of demand (read+write) accesses
system.cpu.icache.demand_accesses::total      6046586                       # number of demand (read+write) accesses
system.cpu.icache.overall_accesses::.cpu.inst      6046586                       # number of overall (read+write) accesses
system.cpu.icache.overall_accesses::total      6046586                       # number of overall (read+write) accesses
system.cpu.icache.demand_miss_rate::.cpu.inst     0.000101                       # miss rate for demand accesses
system.cpu.icache.demand_miss_rate::total     0.000101                       # miss rate for demand accesses
system.cpu.icache.overall_miss_rate::.cpu.inst     0.000101                       # miss rate for overall accesses
system.cpu.icache.overall_miss_rate::total     0.000101                       # miss rate for overall accesses
system.cpu.icache.demand_avg_miss_latency::.cpu.inst 88560.655738                       # average overall miss latency
system.cpu.icache.demand_avg_miss_latency::total 88560.655738                       # average overall miss latency
system.cpu.icache.overall_avg_miss_latency::.cpu.inst 88560.655738                       # average overall miss latency
system.cpu.icache.overall_avg_miss_latency::total 88560.655738                       # average overall miss latency
system.cpu.icache.blocked_cycles::no_mshrs            0                       # number of cycles access was blocked
system.cpu.icache.blocked_cycles::no_targets            0                       # number of cycles access was blocked
system.cpu.icache.blocked::no_mshrs                 0                       # number of cycles access was blocked
system.cpu.icache.blocked::no_targets               0                       # number of cycles access was blocked
system.cpu.icache.avg_blocked_cycles::no_mshrs          nan                       # average number of cycles each access was blocked
system.cpu.icache.avg_blocked_cycles::no_targets          nan                       # average number of cycles each access was blocked
system.cpu.icache.writebacks::.writebacks          208                       # number of writebacks
system.cpu.icache.writebacks::total               208                       # number of writebacks
system.cpu.icache.demand_mshr_misses::.cpu.inst          610                       # number of demand (read+write) MSHR misses
system.cpu.icache.demand_mshr_misses::total          610                       # number of demand (read+write) MSHR misses
system.cpu.icache.overall_mshr_misses::.cpu.inst          610                       # number of overall MSHR misses
system.cpu.icache.overall_mshr_misses::total          610                       # number of overall MSHR misses
system.cpu.icache.demand_mshr_miss_latency::.cpu.inst     52802000                       # number of demand (read+write) MSHR miss cycles
system.cpu.icache.demand_mshr_miss_latency::total     52802000                       # number of demand (read+write) MSHR miss cycles
system.cpu.icache.overall_mshr_miss_latency::.cpu.inst     52802000                       # number of overall MSHR miss cycles
system.cpu.icache.overall_mshr_miss_latency::total     52802000                       # number of overall MSHR miss cycles
system.cpu.icache.demand_mshr_miss_rate::.cpu.inst     0.000101                       # mshr miss rate for demand accesses
system.cpu.icache.demand_mshr_miss_rate::total     0.000101                       # mshr miss rate for demand accesses
system.cpu.icache.overall_mshr_miss_rate::.cpu.inst     0.000101                       # mshr miss rate for overall accesses
system.cpu.icache.overall_mshr_miss_rate::total     0.000101                       # mshr miss rate for overall accesses
system.cpu.icache.demand_avg_mshr_miss_latency::.cpu.inst 86560.655738                       # average overall mshr miss latency
system.cpu.icache.demand_avg_mshr_miss_latency::total 86560.655738                       # average overall mshr miss latency
system.cpu.icache.overall_avg_mshr_miss_latency::.cpu.inst 86560.655738                       # average overall mshr miss latency
system.cpu.icache.overall_avg_mshr_miss_latency::total 86560.655738                       # average overall mshr miss latency
system.cpu.icache.replacements                    208                       # number of replacements
system.cpu.icache.ReadReq_hits::.cpu.inst      6045976                       # number of ReadReq hits
system.cpu.icache.ReadReq_hits::total         6045976                       # number of ReadReq hits
system.cpu.icache.ReadReq_misses::.cpu.inst          610                       # number of ReadReq misses
system.cpu.icache.ReadReq_misses::total           610                       # number of ReadReq misses
system.cpu.icache.ReadReq_miss_latency::.cpu.inst     54022000                       # number of ReadReq miss cycles
system.cpu.icache.ReadReq_miss_latency::total     54022000                       # number of ReadReq miss cycles
system.cpu.icache.ReadReq_accesses::.cpu.inst      6046586                       # number of ReadReq accesses(hits+misses)
system.cpu.icache.ReadReq_accesses::total      6046586                       # number of ReadReq accesses(hits+misses)
system.cpu.icache.ReadReq_miss_rate::.cpu.inst     0.000101                       # miss rate for ReadReq accesses
system.cpu.icache.ReadReq_miss_rate::total     0.000101                       # miss rate for ReadReq accesses
system.cpu.icache.ReadReq_avg_miss_latency::.cpu.inst 88560.655738                       # average ReadReq miss latency
system.cpu.icache.ReadReq_avg_miss_latency::total 88560.655738                       # average ReadReq miss latency
system.cpu.icache.ReadReq_mshr_misses::.cpu.inst          610                       # number of ReadReq MSHR misses
system.cpu.icache.ReadReq_mshr_misses::total          610                       # number of ReadReq MSHR misses
system.cpu.icache.ReadReq_mshr_miss_latency::.cpu.inst     52802000                       # number of ReadReq MSHR miss cycles
system.cpu.icache.ReadReq_mshr_miss_latency::total     52802000                       # number of ReadReq MSHR miss cycles
system.cpu.icache.ReadReq_mshr_miss_rate::.cpu.inst     0.000101                       # mshr miss rate for ReadReq accesses
system.cpu.icache.ReadReq_mshr_miss_rate::total     0.000101                       # mshr miss rate for ReadReq accesses
system.cpu.icache.ReadReq_avg_mshr_miss_latency::.cpu.inst 86560.655738                       # average ReadReq mshr miss latency
system.cpu.icache.ReadReq_avg_mshr_miss_latency::total 86560.655738                       # average ReadReq mshr miss latency
system.cpu.icache.power_state.pwrStateResidencyTicks::UNDEFINED 265139792000                       # Cumulative time (in ticks) in various power states
system.cpu.icache.tags.tagsinuse           401.945298                       # Cycle average of tags in use
system.cpu.icache.tags.total_refs             6046586                       # Total number of references to valid blocks.
system.cpu.icache.tags.sampled_refs               610                       # Sample count of references to valid blocks.
system.cpu.icache.tags.avg_refs           9912.436066                       # Average number of references to valid blocks.
system.cpu.icache.tags.warmup_cycle            108000                       # Cycle when the warmup percentage was hit.
system.cpu.icache.tags.occ_blocks::.cpu.inst   401.945298                       # Average occupied blocks per requestor
system.cpu.icache.tags.occ_percent::.cpu.inst     0.392525                       # Average percentage of cache occupancy
system.cpu.icache.tags.occ_percent::total     0.392525                       # Average percentage of cache occupancy
system.cpu.icache.tags.occ_task_id_blocks::1024          402                       # Occupied blocks per task id
system.cpu.icache.tags.age_task_id_blocks_1024::4          402                       # Occupied blocks per task id
system.cpu.icache.tags.occ_task_id_percent::1024     0.392578                       # Percentage of cache occupancy per task id
system.cpu.icache.tags.tag_accesses           6047196                       # Number of tag accesses
system.cpu.icache.tags.data_accesses          6047196                       # Number of data accesses
system.cpu.icache.tags.power_state.pwrStateResidencyTicks::UNDEFINED 265139792000                       # Cumulative time (in ticks) in various power states
system.cpu.itb.instHits                             0                       # ITB inst hits
system.cpu.itb.instMisses                           0                       # ITB inst misses
system.cpu.itb.readHits                             0                       # DTB read hits
system.cpu.itb.readMisses                           0                       # DTB read misses
system.cpu.itb.writeHits                            0                       # DTB write hits
system.cpu.itb.writeMisses                          0                       # DTB write misses
system.cpu.itb.inserts                              0                       # Number of times an entry is inserted into the TLB
system.cpu.itb.flushTlb                             0                       # Number of times complete TLB was flushed
system.cpu.itb.flushTlbMva                          0                       # Number of times TLB was flushed by MVA
system.cpu.itb.flushTlbMvaAsid                      0                       # Number of times TLB was flushed by MVA & ASID
system.cpu.itb.flushTlbAsid                         0                       # Number of times TLB was flushed by ASID
system.cpu.itb.flushedEntries                       0                       # Number of entries that have been flushed from TLB
system.cpu.itb.alignFaults                          0                       # Number of TLB faults due to alignment restrictions
system.cpu.itb.prefetchFaults                       0                       # Number of TLB faults due to prefetch
system.cpu.itb.domainFaults                         0                       # Number of TLB faults due to domain restrictions
system.cpu.itb.permsFaults                          0                       # Number of TLB faults due to permissions restrictions
system.cpu.itb.readAccesses                         0                       # DTB read accesses
system.cpu.itb.writeAccesses                        0                       # DTB write accesses
system.cpu.itb.instAccesses                         0                       # ITB inst accesses
system.cpu.itb.hits                                 0                       # Total TLB (inst and data) hits
system.cpu.itb.misses                               0                       # Total TLB (inst and data) misses
system.cpu.itb.accesses                             0                       # Total TLB (inst and data) accesses
system.cpu.itb.stage2_mmu.stage2_tlb.instHits            0                       # ITB inst hits
system.cpu.itb.stage2_mmu.stage2_tlb.instMisses            0                       # ITB inst misses
system.cpu.itb.stage2_mmu.stage2_tlb.readHits            0                       # DTB read hits
system.cpu.itb.stage2_mmu.stage2_tlb.readMisses            0                       # DTB read misses
system.cpu.itb.stage2_mmu.stage2_tlb.writeHits            0                       # DTB write hits
system.cpu.itb.stage2_mmu.stage2_tlb.writeMisses            0                       # DTB write misses
system.cpu.itb.stage2_mmu.stage2_tlb.inserts            0                       # Number of times an entry is inserted into the TLB
system.cpu.itb.stage2_mmu.stage2_tlb.flushTlb            0                       # Number of times complete TLB was flushed
system.cpu.itb.stage2_mmu.stage2_tlb.flushTlbMva            0                       # Number of times TLB was flushed by MVA
system.cpu.itb.stage2_mmu.stage2_tlb.flushTlbMvaAsid            0                       # Number of times TLB was flushed by MVA & ASID
system.cpu.itb.stage2_mmu.stage2_tlb.flushTlbAsid            0                       # Number of times TLB was flushed by ASID
system.cpu.itb.stage2_mmu.stage2_tlb.flushedEntries            0                       # Number of entries that have been flushed from TLB
system.cpu.itb.stage2_mmu.stage2_tlb.alignFaults            0                       # Number of TLB faults due to alignment restrictions
system.cpu.itb.stage2_mmu.stage2_tlb.prefetchFaults            0                       # Number of TLB faults due to prefetch
system.cpu.itb.stage2_mmu.stage2_tlb.domainFaults            0                       # Number of TLB faults due to domain restrictions
system.cpu.itb.stage2_mmu.stage2_tlb.permsFaults            0                       # Number of TLB faults due to permissions restrictions
system.cpu.itb.stage2_mmu.stage2_tlb.readAccesses            0                       # DTB read accesses
system.cpu.itb.stage2_mmu.stage2_tlb.writeAccesses            0                       # DTB write accesses
system.cpu.itb.stage2_mmu.stage2_tlb.instAccesses            0                       # ITB inst accesses
system.cpu.itb.stage2_mmu.stage2_tlb.hits            0                       # Total TLB (inst and data) hits
system.cpu.itb.stage2_mmu.stage2_tlb.misses            0                       # Total TLB (inst and data) misses
system.cpu.itb.stage2_mmu.stage2_tlb.accesses            0                       # Total TLB (inst and data) accesses
system.cpu.itb.stage2_mmu.stage2_tlb.walker.walks            0                       # Table walker walks requested
system.cpu.itb.stage2_mmu.stage2_tlb.walker.requestOrigin_Requested::Data            0                       # Table walker requests started/completed, data/inst
system.cpu.itb.stage2_mmu.stage2_tlb.walker.requestOrigin_Requested::Inst            0                       # Table walker requests started/completed, data/inst
system.cpu.itb.stage2_mmu.stage2_tlb.walker.requestOrigin_Requested::total            0                       # Table walker requests started/completed, data/inst
system.cpu.itb.stage2_mmu.stage2_tlb.walker.requestOrigin_Completed::Data            0                       # Table walker requests started/completed, data/inst
system.cpu.itb.stage2_mmu.stage2_tlb.walker.requestOrigin_Completed::Inst            0                       # Table walker requests started/completed, data/inst
system.cpu.itb.stage2_mmu.stage2_tlb.walker.requestOrigin_Completed::total            0                       # Table walker requests started/completed, data/inst
system.cpu.itb.stage2_mmu.stage2_tlb.walker.requestOrigin::total            0                       # Table walker requests started/completed, data/inst
system.cpu.itb.stage2_mmu.stage2_tlb.walker.power_state.pwrStateResidencyTicks::UNDEFINED 265139792000                       # Cumulative time (in ticks) in various power states
system.cpu.itb.walker.walks                         0                       # Table walker walks requested
system.cpu.itb.walker.requestOrigin_Requested::Data            0                       # Table walker requests started/completed, data/inst
system.cpu.itb.walker.requestOrigin_Requested::Inst            0                       # Table walker requests started/completed, data/inst
system.cpu.itb.walker.requestOrigin_Requested::total            0                       # Table walker requests started/completed, data/inst
system.cpu.itb.walker.requestOrigin_Completed::Data            0                       # Table walker requests started/completed, data/inst
system.cpu.itb.walker.requestOrigin_Completed::Inst            0                       # Table walker requests started/completed, data/inst
system.cpu.itb.walker.requestOrigin_Completed::total            0                       # Table walker requests started/completed, data/inst
system.cpu.itb.walker.requestOrigin::total            0                       # Table walker requests started/completed, data/inst
system.cpu.itb.walker.power_state.pwrStateResidencyTicks::UNDEFINED 265139792000                       # Cumulative time (in ticks) in various power states
system.cpu.power_state.pwrStateResidencyTicks::ON 265139792000                       # Cumulative time (in ticks) in various power states
system.cpu.thread_0.numInsts                100000000                       # Number of Instructions committed
system.cpu.thread_0.numOps                  100003676                       # Number of Ops committed
system.cpu.thread_0.numMemRefs                      0                       # Number of Memory References
system.cpu_clk_domain.clock                      1000                       # Clock period in ticks
system.cpu_voltage_domain.voltage                   1                       # Voltage in Volts
system.l2.demand_hits::.cpu.inst                  109                       # number of demand (read+write) hits
system.l2.demand_hits::.cpu.data                39796                       # number of demand (read+write) hits
system.l2.demand_hits::total                    39905                       # number of demand (read+write) hits
system.l2.overall_hits::.cpu.inst                 109                       # number of overall hits
system.l2.overall_hits::.cpu.data               39796                       # number of overall hits
system.l2.overall_hits::total                   39905                       # number of overall hits
system.l2.demand_misses::.cpu.inst                501                       # number of demand (read+write) misses
system.l2.demand_misses::.cpu.data            1488526                       # number of demand (read+write) misses
system.l2.demand_misses::total                1489027                       # number of demand (read+write) misses
system.l2.overall_misses::.cpu.inst               501                       # number of overall misses
system.l2.overall_misses::.cpu.data           1488526                       # number of overall misses
system.l2.overall_misses::total               1489027                       # number of overall misses
system.l2.demand_miss_latency::.cpu.inst     48560000                       # number of demand (read+write) miss cycles
system.l2.demand_miss_latency::.cpu.data 151568853000                       # number of demand (read+write) miss cycles
system.l2.demand_miss_latency::total     151617413000                       # number of demand (read+write) miss cycles
system.l2.overall_miss_latency::.cpu.inst     48560000                       # number of overall miss cycles
system.l2.overall_miss_latency::.cpu.data 151568853000                       # number of overall miss cycles
system.l2.overall_miss_latency::total    151617413000                       # number of overall miss cycles
system.l2.demand_accesses::.cpu.inst              610                       # number of demand (read+write) accesses
system.l2.demand_accesses::.cpu.data          1528322                       # number of demand (read+write) accesses
system.l2.demand_accesses::total              1528932                       # number of demand (read+write) accesses
system.l2.overall_accesses::.cpu.inst             610                       # number of overall (read+write) accesses
system.l2.overall_accesses::.cpu.data         1528322                       # number of overall (read+write) accesses
system.l2.overall_accesses::total             1528932                       # number of overall (read+write) accesses
system.l2.demand_miss_rate::.cpu.inst        0.821311                       # miss rate for demand accesses
system.l2.demand_miss_rate::.cpu.data        0.973961                       # miss rate for demand accesses
system.l2.demand_miss_rate::total            0.973900                       # miss rate for demand accesses
system.l2.overall_miss_rate::.cpu.inst       0.821311                       # miss rate for overall accesses
system.l2.overall_miss_rate::.cpu.data       0.973961                       # miss rate for overall accesses
system.l2.overall_miss_rate::total           0.973900                       # miss rate for overall accesses
system.l2.demand_avg_miss_latency::.cpu.inst 96926.147705                       # average overall miss latency
system.l2.demand_avg_miss_latency::.cpu.data 101824.793789                       # average overall miss latency
system.l2.demand_avg_miss_latency::total 101823.145584                       # average overall miss latency
system.l2.overall_avg_miss_latency::.cpu.inst 96926.147705                       # average overall miss latency
system.l2.overall_avg_miss_latency::.cpu.data 101824.793789                       # average overall miss latency
system.l2.overall_avg_miss_latency::total 101823.145584                       # average overall miss latency
system.l2.blocked_cycles::no_mshrs                  0                       # number of cycles access was blocked
system.l2.blocked_cycles::no_targets                0                       # number of cycles access was blocked
system.l2.blocked::no_mshrs                         0                       # number of cycles access was blocked
system.l2.blocked::no_targets                       0                       # number of cycles access was blocked
system.l2.avg_blocked_cycles::no_mshrs            nan                       # average number of cycles each access was blocked
system.l2.avg_blocked_cycles::no_targets          nan                       # average number of cycles each access was blocked
system.l2.writebacks::.writebacks             1479326                       # number of writebacks
system.l2.writebacks::total                   1479326                       # number of writebacks
system.l2.demand_mshr_hits::.cpu.inst               2                       # number of demand (read+write) MSHR hits
system.l2.demand_mshr_hits::.cpu.data               3                       # number of demand (read+write) MSHR hits
system.l2.demand_mshr_hits::total                   5                       # number of demand (read+write) MSHR hits
system.l2.overall_mshr_hits::.cpu.inst              2                       # number of overall MSHR hits
system.l2.overall_mshr_hits::.cpu.data              3                       # number of overall MSHR hits
system.l2.overall_mshr_hits::total                  5                       # number of overall MSHR hits
system.l2.demand_mshr_misses::.cpu.inst           499                       # number of demand (read+write) MSHR misses
system.l2.demand_mshr_misses::.cpu.data       1488523                       # number of demand (read+write) MSHR misses
system.l2.demand_mshr_misses::total           1489022                       # number of demand (read+write) MSHR misses
system.l2.overall_mshr_misses::.cpu.inst          499                       # number of overall MSHR misses
system.l2.overall_mshr_misses::.cpu.data      1488523                       # number of overall MSHR misses
system.l2.overall_mshr_misses::total          1489022                       # number of overall MSHR misses
system.l2.demand_mshr_miss_latency::.cpu.inst     38406000                       # number of demand (read+write) MSHR miss cycles
system.l2.demand_mshr_miss_latency::.cpu.data 121798137000                       # number of demand (read+write) MSHR miss cycles
system.l2.demand_mshr_miss_latency::total 121836543000                       # number of demand (read+write) MSHR miss cycles
system.l2.overall_mshr_miss_latency::.cpu.inst     38406000                       # number of overall MSHR miss cycles
system.l2.overall_mshr_miss_latency::.cpu.data 121798137000                       # number of overall MSHR miss cycles
system.l2.overall_mshr_miss_latency::total 121836543000                       # number of overall MSHR miss cycles
system.l2.demand_mshr_miss_rate::.cpu.inst     0.818033                       # mshr miss rate for demand accesses
system.l2.demand_mshr_miss_rate::.cpu.data     0.973959                       # mshr miss rate for demand accesses
system.l2.demand_mshr_miss_rate::total       0.973897                       # mshr miss rate for demand accesses
system.l2.overall_mshr_miss_rate::.cpu.inst     0.818033                       # mshr miss rate for overall accesses
system.l2.overall_mshr_miss_rate::.cpu.data     0.973959                       # mshr miss rate for overall accesses
system.l2.overall_mshr_miss_rate::total      0.973897                       # mshr miss rate for overall accesses
system.l2.demand_avg_mshr_miss_latency::.cpu.inst 76965.931864                       # average overall mshr miss latency
system.l2.demand_avg_mshr_miss_latency::.cpu.data 81824.827027                       # average overall mshr miss latency
system.l2.demand_avg_mshr_miss_latency::total 81823.198717                       # average overall mshr miss latency
system.l2.overall_avg_mshr_miss_latency::.cpu.inst 76965.931864                       # average overall mshr miss latency
system.l2.overall_avg_mshr_miss_latency::.cpu.data 81824.827027                       # average overall mshr miss latency
system.l2.overall_avg_mshr_miss_latency::total 81823.198717                       # average overall mshr miss latency
system.l2.replacements                        1483187                       # number of replacements
system.l2.WritebackDirty_hits::.writebacks      1516069                       # number of WritebackDirty hits
system.l2.WritebackDirty_hits::total          1516069                       # number of WritebackDirty hits
system.l2.WritebackDirty_accesses::.writebacks      1516069                       # number of WritebackDirty accesses(hits+misses)
system.l2.WritebackDirty_accesses::total      1516069                       # number of WritebackDirty accesses(hits+misses)
system.l2.WritebackClean_hits::.writebacks          198                       # number of WritebackClean hits
system.l2.WritebackClean_hits::total              198                       # number of WritebackClean hits
system.l2.WritebackClean_accesses::.writebacks          198                       # number of WritebackClean accesses(hits+misses)
system.l2.WritebackClean_accesses::total          198                       # number of WritebackClean accesses(hits+misses)
system.l2.ReadExReq_hits::.cpu.data             17430                       # number of ReadExReq hits
system.l2.ReadExReq_hits::total                 17430                       # number of ReadExReq hits
system.l2.ReadExReq_misses::.cpu.data         1487500                       # number of ReadExReq misses
system.l2.ReadExReq_misses::total             1487500                       # number of ReadExReq misses
system.l2.ReadExReq_miss_latency::.cpu.data 151455555000                       # number of ReadExReq miss cycles
system.l2.ReadExReq_miss_latency::total  151455555000                       # number of ReadExReq miss cycles
system.l2.ReadExReq_accesses::.cpu.data       1504930                       # number of ReadExReq accesses(hits+misses)
system.l2.ReadExReq_accesses::total           1504930                       # number of ReadExReq accesses(hits+misses)
system.l2.ReadExReq_miss_rate::.cpu.data     0.988418                       # miss rate for ReadExReq accesses
system.l2.ReadExReq_miss_rate::total         0.988418                       # miss rate for ReadExReq accesses
system.l2.ReadExReq_avg_miss_latency::.cpu.data 101818.860504                       # average ReadExReq miss latency
system.l2.ReadExReq_avg_miss_latency::total 101818.860504                       # average ReadExReq miss latency
system.l2.ReadExReq_mshr_misses::.cpu.data      1487500                       # number of ReadExReq MSHR misses
system.l2.ReadExReq_mshr_misses::total        1487500                       # number of ReadExReq MSHR misses
system.l2.ReadExReq_mshr_miss_latency::.cpu.data 121705555000                       # number of ReadExReq MSHR miss cycles
system.l2.ReadExReq_mshr_miss_latency::total 121705555000                       # number of ReadExReq MSHR miss cycles
system.l2.ReadExReq_mshr_miss_rate::.cpu.data     0.988418                       # mshr miss rate for ReadExReq accesses
system.l2.ReadExReq_mshr_miss_rate::total     0.988418                       # mshr miss rate for ReadExReq accesses
system.l2.ReadExReq_avg_mshr_miss_latency::.cpu.data 81818.860504                       # average ReadExReq mshr miss latency
system.l2.ReadExReq_avg_mshr_miss_latency::total 81818.860504                       # average ReadExReq mshr miss latency
system.l2.ReadCleanReq_hits::.cpu.inst            109                       # number of ReadCleanReq hits
system.l2.ReadCleanReq_hits::total                109                       # number of ReadCleanReq hits
system.l2.ReadCleanReq_misses::.cpu.inst          501                       # number of ReadCleanReq misses
system.l2.ReadCleanReq_misses::total              501                       # number of ReadCleanReq misses
system.l2.ReadCleanReq_miss_latency::.cpu.inst     48560000                       # number of ReadCleanReq miss cycles
system.l2.ReadCleanReq_miss_latency::total     48560000                       # number of ReadCleanReq miss cycles
system.l2.ReadCleanReq_accesses::.cpu.inst          610                       # number of ReadCleanReq accesses(hits+misses)
system.l2.ReadCleanReq_accesses::total            610                       # number of ReadCleanReq accesses(hits+misses)
system.l2.ReadCleanReq_miss_rate::.cpu.inst     0.821311                       # miss rate for ReadCleanReq accesses
system.l2.ReadCleanReq_miss_rate::total      0.821311                       # miss rate for ReadCleanReq accesses
system.l2.ReadCleanReq_avg_miss_latency::.cpu.inst 96926.147705                       # average ReadCleanReq miss latency
system.l2.ReadCleanReq_avg_miss_latency::total 96926.147705                       # average ReadCleanReq miss latency
system.l2.ReadCleanReq_mshr_hits::.cpu.inst            2                       # number of ReadCleanReq MSHR hits
system.l2.ReadCleanReq_mshr_hits::total             2                       # number of ReadCleanReq MSHR hits
system.l2.ReadCleanReq_mshr_misses::.cpu.inst          499                       # number of ReadCleanReq MSHR misses
system.l2.ReadCleanReq_mshr_misses::total          499                       # number of ReadCleanReq MSHR misses
system.l2.ReadCleanReq_mshr_miss_latency::.cpu.inst     38406000                       # number of ReadCleanReq MSHR miss cycles
system.l2.ReadCleanReq_mshr_miss_latency::total     38406000                       # number of ReadCleanReq MSHR miss cycles
system.l2.ReadCleanReq_mshr_miss_rate::.cpu.inst     0.818033                       # mshr miss rate for ReadCleanReq accesses
system.l2.ReadCleanReq_mshr_miss_rate::total     0.818033                       # mshr miss rate for ReadCleanReq accesses
system.l2.ReadCleanReq_avg_mshr_miss_latency::.cpu.inst 76965.931864                       # average ReadCleanReq mshr miss latency
system.l2.ReadCleanReq_avg_mshr_miss_latency::total 76965.931864                       # average ReadCleanReq mshr miss latency
system.l2.ReadSharedReq_hits::.cpu.data         22366                       # number of ReadSharedReq hits
system.l2.ReadSharedReq_hits::total             22366                       # number of ReadSharedReq hits
system.l2.ReadSharedReq_misses::.cpu.data         1026                       # number of ReadSharedReq misses
system.l2.ReadSharedReq_misses::total            1026                       # number of ReadSharedReq misses
system.l2.ReadSharedReq_miss_latency::.cpu.data    113298000                       # number of ReadSharedReq miss cycles
system.l2.ReadSharedReq_miss_latency::total    113298000                       # number of ReadSharedReq miss cycles
system.l2.ReadSharedReq_accesses::.cpu.data        23392                       # number of ReadSharedReq accesses(hits+misses)
system.l2.ReadSharedReq_accesses::total         23392                       # number of ReadSharedReq accesses(hits+misses)
system.l2.ReadSharedReq_miss_rate::.cpu.data     0.043861                       # miss rate for ReadSharedReq accesses
system.l2.ReadSharedReq_miss_rate::total     0.043861                       # miss rate for ReadSharedReq accesses
system.l2.ReadSharedReq_avg_miss_latency::.cpu.data 110426.900585                       # average ReadSharedReq miss latency
system.l2.ReadSharedReq_avg_miss_latency::total 110426.900585                       # average ReadSharedReq miss latency
system.l2.ReadSharedReq_mshr_hits::.cpu.data            3                       # number of ReadSharedReq MSHR hits
system.l2.ReadSharedReq_mshr_hits::total            3                       # number of ReadSharedReq MSHR hits
system.l2.ReadSharedReq_mshr_misses::.cpu.data         1023                       # number of ReadSharedReq MSHR misses
system.l2.ReadSharedReq_mshr_misses::total         1023                       # number of ReadSharedReq MSHR misses
system.l2.ReadSharedReq_mshr_miss_latency::.cpu.data     92582000                       # number of ReadSharedReq MSHR miss cycles
system.l2.ReadSharedReq_mshr_miss_latency::total     92582000                       # number of ReadSharedReq MSHR miss cycles
system.l2.ReadSharedReq_mshr_miss_rate::.cpu.data     0.043733                       # mshr miss rate for ReadSharedReq accesses
system.l2.ReadSharedReq_mshr_miss_rate::total     0.043733                       # mshr miss rate for ReadSharedReq accesses
system.l2.ReadSharedReq_avg_mshr_miss_latency::.cpu.data 90500.488759                       # average ReadSharedReq mshr miss latency
system.l2.ReadSharedReq_avg_mshr_miss_latency::total 90500.488759                       # average ReadSharedReq mshr miss latency
system.l2.power_state.pwrStateResidencyTicks::UNDEFINED 265139792000                       # Cumulative time (in ticks) in various power states
system.l2.tags.tagsinuse                  8169.567190                       # Cycle average of tags in use
system.l2.tags.total_refs                     3045289                       # Total number of references to valid blocks.
system.l2.tags.sampled_refs                   1491379                       # Sample count of references to valid blocks.
system.l2.tags.avg_refs                      2.041928                       # Average number of references to valid blocks.
system.l2.tags.warmup_cycle                     87000                       # Cycle when the warmup percentage was hit.
system.l2.tags.occ_blocks::.writebacks       1.057375                       # Average occupied blocks per requestor
system.l2.tags.occ_blocks::.cpu.inst         1.146181                       # Average occupied blocks per requestor
system.l2.tags.occ_blocks::.cpu.data      8167.363634                       # Average occupied blocks per requestor
system.l2.tags.occ_percent::.writebacks      0.000129                       # Average percentage of cache occupancy
system.l2.tags.occ_percent::.cpu.inst        0.000140                       # Average percentage of cache occupancy
system.l2.tags.occ_percent::.cpu.data        0.996993                       # Average percentage of cache occupancy
system.l2.tags.occ_percent::total            0.997262                       # Average percentage of cache occupancy
system.l2.tags.occ_task_id_blocks::1024          8192                       # Occupied blocks per task id
system.l2.tags.age_task_id_blocks_1024::0           56                       # Occupied blocks per task id
system.l2.tags.age_task_id_blocks_1024::1          505                       # Occupied blocks per task id
system.l2.tags.age_task_id_blocks_1024::2         5049                       # Occupied blocks per task id
system.l2.tags.age_task_id_blocks_1024::3         2582                       # Occupied blocks per task id
system.l2.tags.occ_task_id_percent::1024            1                       # Percentage of cache occupancy per task id
system.l2.tags.tag_accesses                   4536673                       # Number of tag accesses
system.l2.tags.data_accesses                  4536673                       # Number of data accesses
system.l2.tags.power_state.pwrStateResidencyTicks::UNDEFINED 265139792000                       # Cumulative time (in ticks) in various power states
system.mem_ctrls.avgPriority_.writebacks::samples   1479326.00                       # Average QoS priority value for accepted requests
system.mem_ctrls.avgPriority_.cpu.inst::samples       499.00                       # Average QoS priority value for accepted requests
system.mem_ctrls.avgPriority_.cpu.data::samples   1488523.00                       # Average QoS priority value for accepted requests
system.mem_ctrls.priorityMinLatency      0.000000018750                       # per QoS priority minimum request to response latency (s)
system.mem_ctrls.priorityMaxLatency      0.001974868500                       # per QoS priority maximum request to response latency (s)
system.mem_ctrls.numReadWriteTurnArounds        82353                       # Number of turnarounds from READ to WRITE
system.mem_ctrls.numWriteReadTurnArounds        82353                       # Number of turnarounds from WRITE to READ
system.mem_ctrls.numStayReadState             4459047                       # Number of times bus staying in READ state
system.mem_ctrls.numStayWriteState            1403088                       # Number of times bus staying in WRITE state
system.mem_ctrls.readReqs                     1489022                       # Number of read requests accepted
system.mem_ctrls.writeReqs                    1479326                       # Number of write requests accepted
system.mem_ctrls.readBursts                   1489022                       # Number of controller read bursts, including those serviced by the write queue
system.mem_ctrls.writeBursts                  1479326                       # Number of controller write bursts, including those merged in the write queue
system.mem_ctrls.servicedByWrQ                      0                       # Number of controller read bursts serviced by the write queue
system.mem_ctrls.mergedWrBursts                     0                       # Number of controller write bursts merged with an existing one
system.mem_ctrls.neitherReadNorWriteReqs            0                       # Number of requests that are neither read nor write
system.mem_ctrls.avgRdQLen                       1.00                       # Average read queue length when enqueuing
system.mem_ctrls.avgWrQLen                      24.73                       # Average write queue length when enqueuing
system.mem_ctrls.numRdRetry                         0                       # Number of times read queue was full causing retry
system.mem_ctrls.numWrRetry                         0                       # Number of times write queue was full causing retry
system.mem_ctrls.readPktSize::0                     0                       # Read request sizes (log2)
system.mem_ctrls.readPktSize::1                     0                       # Read request sizes (log2)
system.mem_ctrls.readPktSize::2                     0                       # Read request sizes (log2)
system.mem_ctrls.readPktSize::3                     0                       # Read request sizes (log2)
system.mem_ctrls.readPktSize::4                     0                       # Read request sizes (log2)
system.mem_ctrls.readPktSize::5                     0                       # Read request sizes (log2)
system.mem_ctrls.readPktSize::6               1489022                       # Read request sizes (log2)
system.mem_ctrls.writePktSize::0                    0                       # Write request sizes (log2)
system.mem_ctrls.writePktSize::1                    0                       # Write request sizes (log2)
system.mem_ctrls.writePktSize::2                    0                       # Write request sizes (log2)
system.mem_ctrls.writePktSize::3                    0                       # Write request sizes (log2)
system.mem_ctrls.writePktSize::4                    0                       # Write request sizes (log2)
system.mem_ctrls.writePktSize::5                    0                       # Write request sizes (log2)
system.mem_ctrls.writePktSize::6              1479326                       # Write request sizes (log2)
system.mem_ctrls.rdQLenPdf::0                 1488903                       # What read queue length does an incoming req see
system.mem_ctrls.rdQLenPdf::1                     113                       # What read queue length does an incoming req see
system.mem_ctrls.rdQLenPdf::2                       6                       # What read queue length does an incoming req see
system.mem_ctrls.rdQLenPdf::3                       0                       # What read queue length does an incoming req see
system.mem_ctrls.rdQLenPdf::4                       0                       # What read queue length does an incoming req see
system.mem_ctrls.rdQLenPdf::5                       0                       # What read queue length does an incoming req see
system.mem_ctrls.rdQLenPdf::6                       0                       # What read queue length does an incoming req see
system.mem_ctrls.rdQLenPdf::7                       0                       # What read queue length does an incoming req see
system.mem_ctrls.rdQLenPdf::8                       0                       # What read queue length does an incoming req see
system.mem_ctrls.rdQLenPdf::9                       0                       # What read queue length does an incoming req see
system.mem_ctrls.rdQLenPdf::10                      0                       # What read queue length does an incoming req see
[...]
system.mem_ctrls.dram.bw_write::.writebacks    357082818                       # Write bandwidth from this memory (bytes/s)
system.mem_ctrls.dram.bw_write::total       357082818                       # Write bandwidth from this memory (bytes/s)
system.mem_ctrls.dram.bw_total::.writebacks    357082818                       # Total bandwidth to/from this memory (bytes/s)
system.mem_ctrls.dram.bw_total::.cpu.inst       120450                       # Total bandwidth to/from this memory (bytes/s)
system.mem_ctrls.dram.bw_total::.cpu.data    359302809                       # Total bandwidth to/from this memory (bytes/s)
system.mem_ctrls.dram.bw_total::total       716506076                       # Total bandwidth to/from this memory (bytes/s)
system.mem_ctrls.dram.readBursts              1489022                       # Number of DRAM read bursts
system.mem_ctrls.dram.writeBursts             1479294                       # Number of DRAM write bursts
system.mem_ctrls.dram.perBankRdBursts::0        93942                       # Per bank write bursts
system.mem_ctrls.dram.perBankRdBursts::1        92977                       # Per bank write bursts
system.mem_ctrls.dram.perBankRdBursts::2        93002                       # Per bank write bursts
system.mem_ctrls.dram.perBankRdBursts::3        92952                       # Per bank write bursts
system.mem_ctrls.dram.perBankRdBursts::4        92982                       # Per bank write bursts
system.mem_ctrls.dram.perBankRdBursts::5        93010                       # Per bank write bursts
system.mem_ctrls.dram.perBankRdBursts::6        93062                       # Per bank write bursts
system.mem_ctrls.dram.perBankRdBursts::7        93077                       # Per bank write bursts
system.mem_ctrls.dram.perBankRdBursts::8        93154                       # Per bank write bursts
system.mem_ctrls.dram.perBankRdBursts::9        93077                       # Per bank write bursts
system.mem_ctrls.dram.perBankRdBursts::10        92956                       # Per bank write bursts
system.mem_ctrls.dram.perBankRdBursts::11        92950                       # Per bank write bursts
system.mem_ctrls.dram.perBankRdBursts::12        92997                       # Per bank write bursts
system.mem_ctrls.dram.perBankRdBursts::13        92953                       # Per bank write bursts
system.mem_ctrls.dram.perBankRdBursts::14        92960                       # Per bank write bursts
system.mem_ctrls.dram.perBankRdBursts::15        92971                       # Per bank write bursts
system.mem_ctrls.dram.perBankWrBursts::0        92420                       # Per bank write bursts
system.mem_ctrls.dram.perBankWrBursts::1        92456                       # Per bank write bursts
system.mem_ctrls.dram.perBankWrBursts::2        92442                       # Per bank write bursts
system.mem_ctrls.dram.perBankWrBursts::3        92431                       # Per bank write bursts
system.mem_ctrls.dram.perBankWrBursts::4        92423                       # Per bank write bursts
system.mem_ctrls.dram.perBankWrBursts::5        92481                       # Per bank write bursts
system.mem_ctrls.dram.perBankWrBursts::6        92544                       # Per bank write bursts
system.mem_ctrls.dram.perBankWrBursts::7        92544                       # Per bank write bursts
system.mem_ctrls.dram.perBankWrBursts::8        92544                       # Per bank write bursts
system.mem_ctrls.dram.perBankWrBursts::9        92513                       # Per bank write bursts
system.mem_ctrls.dram.perBankWrBursts::10        92416                       # Per bank write bursts
system.mem_ctrls.dram.perBankWrBursts::11        92416                       # Per bank write bursts
system.mem_ctrls.dram.perBankWrBursts::12        92416                       # Per bank write bursts
system.mem_ctrls.dram.perBankWrBursts::13        92416                       # Per bank write bursts
system.mem_ctrls.dram.perBankWrBursts::14        92416                       # Per bank write bursts
system.mem_ctrls.dram.perBankWrBursts::15        92416                       # Per bank write bursts
system.mem_ctrls.dram.totQLat             17582656750                       # Total ticks spent queuing
system.mem_ctrls.dram.totBusLat            7445110000                       # Total ticks spent in databus transfers
system.mem_ctrls.dram.totMemAccLat        45501819250                       # Total ticks spent from burst creation until serviced by the DRAM
system.mem_ctrls.dram.avgQLat                11808.19                       # Average queueing delay per DRAM burst
system.mem_ctrls.dram.avgBusLat               5000.00                       # Average bus latency per DRAM burst
system.mem_ctrls.dram.avgMemAccLat           30558.19                       # Average memory access latency per DRAM burst
system.mem_ctrls.dram.readRowHits             1315293                       # Number of row buffer hits during reads
system.mem_ctrls.dram.writeRowHits            1313635                       # Number of row buffer hits during writes
system.mem_ctrls.dram.readRowHitRate            88.33                       # Row buffer hit rate for reads
system.mem_ctrls.dram.writeRowHitRate           88.80                       # Row buffer hit rate for writes
system.mem_ctrls.dram.bytesPerActivate::samples       339386                       # Bytes accessed per row activation
system.mem_ctrls.dram.bytesPerActivate::mean   559.750231                       # Bytes accessed per row activation
system.mem_ctrls.dram.bytesPerActivate::gmean   371.826113                       # Bytes accessed per row activation
system.mem_ctrls.dram.bytesPerActivate::stdev   410.082594                       # Bytes accessed per row activation
system.mem_ctrls.dram.bytesPerActivate::0-127        15808      4.66%      4.66% # Bytes accessed per row activation
system.mem_ctrls.dram.bytesPerActivate::128-255       123568     36.41%     41.07% # Bytes accessed per row activation
system.mem_ctrls.dram.bytesPerActivate::256-383        13019      3.84%     44.90% # Bytes accessed per row activation
system.mem_ctrls.dram.bytesPerActivate::384-511        13036      3.84%     48.74% # Bytes accessed per row activation
system.mem_ctrls.dram.bytesPerActivate::512-639        14581      4.30%     53.04% # Bytes accessed per row activation
system.mem_ctrls.dram.bytesPerActivate::640-767        12073      3.56%     56.60% # Bytes accessed per row activation
system.mem_ctrls.dram.bytesPerActivate::768-895        10941      3.22%     59.82% # Bytes accessed per row activation
system.mem_ctrls.dram.bytesPerActivate::896-1023        11424      3.37%     63.19% # Bytes accessed per row activation
system.mem_ctrls.dram.bytesPerActivate::1024-1151       124936     36.81%    100.00% # Bytes accessed per row activation
system.mem_ctrls.dram.bytesPerActivate::total       339386                       # Bytes accessed per row activation
system.mem_ctrls.dram.bytesRead              95297408                       # Total number of bytes read from DRAM
system.mem_ctrls.dram.bytesWritten           94674816                       # Total number of bytes written to DRAM
system.mem_ctrls.dram.avgRdBW              359.423259                       # Average DRAM read bandwidth in MiBytes/s
system.mem_ctrls.dram.avgWrBW              357.075093                       # Average DRAM write bandwidth in MiBytes/s
system.mem_ctrls.dram.peakBW                 12800.00                       # Theoretical peak bandwidth in MiByte/s
system.mem_ctrls.dram.busUtil                    5.60                       # Data bus utilization in percentage
system.mem_ctrls.dram.busUtilRead                2.81                       # Data bus utilization in percentage for reads
system.mem_ctrls.dram.busUtilWrite               2.79                       # Data bus utilization in percentage for writes
system.mem_ctrls.dram.pageHitRate               88.57                       # Row buffer hit rate, read and write combined
system.mem_ctrls.dram.power_state.pwrStateResidencyTicks::UNDEFINED 265139792000                       # Cumulative time (in ticks) in various power states
system.mem_ctrls.dram.rank0.actEnergy      1215806340                       # Energy for activate commands per rank (pJ)
system.mem_ctrls.dram.rank0.preEnergy       646216395                       # Energy for precharge commands per rank (pJ)
system.mem_ctrls.dram.rank0.readEnergy     5319328560                       # Energy for read commands per rank (pJ)
system.mem_ctrls.dram.rank0.writeEnergy    3861448020                       # Energy for write commands per rank (pJ)
system.mem_ctrls.dram.rank0.refreshEnergy 20929721280.000004                       # Energy for refresh commands per rank (pJ)
system.mem_ctrls.dram.rank0.actBackEnergy  61918776810                       # Energy for active background per rank (pJ)
system.mem_ctrls.dram.rank0.preBackEnergy  49671552480                       # Energy for precharge background per rank (pJ)
system.mem_ctrls.dram.rank0.actPowerDownEnergy            0                       # Energy for active power-down per rank (pJ)
system.mem_ctrls.dram.rank0.prePowerDownEnergy            0                       # Energy for precharge power-down per rank (pJ)
system.mem_ctrls.dram.rank0.selfRefreshEnergy            0                       # Energy for self refresh per rank (pJ)
system.mem_ctrls.dram.rank0.totalEnergy  143562849885                       # Total energy per rank (pJ)
system.mem_ctrls.dram.rank0.averagePower   541.460973                       # Core power per rank (mW)
system.mem_ctrls.dram.rank0.totalIdleTime            0                       # Total Idle time Per DRAM Rank
system.mem_ctrls.dram.rank0.pwrStateTime::IDLE 127185748000                       # Time in different power states
system.mem_ctrls.dram.rank0.pwrStateTime::REF   8853520000                       # Time in different power states
system.mem_ctrls.dram.rank0.pwrStateTime::SREF            0                       # Time in different power states
system.mem_ctrls.dram.rank0.pwrStateTime::PRE_PDN            0                       # Time in different power states
system.mem_ctrls.dram.rank0.pwrStateTime::ACT 129100524000                       # Time in different power states
system.mem_ctrls.dram.rank0.pwrStateTime::ACT_PDN            0                       # Time in different power states
system.mem_ctrls.dram.rank1.actEnergy      1207423980                       # Energy for activate commands per rank (pJ)
system.mem_ctrls.dram.rank1.preEnergy       641753475                       # Energy for precharge commands per rank (pJ)
system.mem_ctrls.dram.rank1.readEnergy     5312288520                       # Energy for read commands per rank (pJ)
system.mem_ctrls.dram.rank1.writeEnergy    3860466660                       # Energy for write commands per rank (pJ)
system.mem_ctrls.dram.rank1.refreshEnergy 20929721280.000004                       # Energy for refresh commands per rank (pJ)
system.mem_ctrls.dram.rank1.actBackEnergy  61766863260                       # Energy for active background per rank (pJ)
system.mem_ctrls.dram.rank1.preBackEnergy  49799479680                       # Energy for precharge background per rank (pJ)
system.mem_ctrls.dram.rank1.actPowerDownEnergy            0                       # Energy for active power-down per rank (pJ)
system.mem_ctrls.dram.rank1.prePowerDownEnergy            0                       # Energy for precharge power-down per rank (pJ)
system.mem_ctrls.dram.rank1.selfRefreshEnergy            0                       # Energy for self refresh per rank (pJ)
system.mem_ctrls.dram.rank1.totalEnergy  143517996855                       # Total energy per rank (pJ)
system.mem_ctrls.dram.rank1.averagePower   541.291806                       # Core power per rank (mW)
system.mem_ctrls.dram.rank1.totalIdleTime            0                       # Total Idle time Per DRAM Rank
system.mem_ctrls.dram.rank1.pwrStateTime::IDLE 127496982750                       # Time in different power states
system.mem_ctrls.dram.rank1.pwrStateTime::REF   8853520000                       # Time in different power states
system.mem_ctrls.dram.rank1.pwrStateTime::SREF            0                       # Time in different power states
system.mem_ctrls.dram.rank1.pwrStateTime::PRE_PDN            0                       # Time in different power states
system.mem_ctrls.dram.rank1.pwrStateTime::ACT 128789289250                       # Time in different power states
system.mem_ctrls.dram.rank1.pwrStateTime::ACT_PDN            0                       # Time in different power states
system.mem_ctrls.power_state.pwrStateResidencyTicks::UNDEFINED 265139792000                       # Cumulative time (in ticks) in various power states
system.membus.trans_dist::ReadResp               1522                       # Transaction distribution
system.membus.trans_dist::WritebackDirty      1479326                       # Transaction distribution
system.membus.trans_dist::CleanEvict              193                       # Transaction distribution
system.membus.trans_dist::ReadExReq           1487500                       # Transaction distribution
system.membus.trans_dist::ReadExResp          1487500                       # Transaction distribution
system.membus.trans_dist::ReadSharedReq          1522                       # Transaction distribution
system.membus.pkt_count_system.l2.mem_side_port::system.mem_ctrls.port      4457563                       # Packet count per connected requestor and responder (bytes)
system.membus.pkt_count::total                4457563                       # Packet count per connected requestor and responder (bytes)
system.membus.pkt_size_system.l2.mem_side_port::system.mem_ctrls.port    189974272                       # Cumulative packet size per connected requestor and responder (bytes)
system.membus.pkt_size::total               189974272                       # Cumulative packet size per connected requestor and responder (bytes)
system.membus.snoops                                0                       # Total snoops (count)
system.membus.snoopTraffic                          0                       # Total snoop traffic (bytes)
system.membus.snoop_fanout::samples           1489022                       # Request fanout histogram
system.membus.snoop_fanout::mean                    0                       # Request fanout histogram
system.membus.snoop_fanout::stdev                   0                       # Request fanout histogram
system.membus.snoop_fanout::underflows              0      0.00%      0.00% # Request fanout histogram
system.membus.snoop_fanout::0                 1489022    100.00%    100.00% # Request fanout histogram
system.membus.snoop_fanout::1                       0      0.00%    100.00% # Request fanout histogram
system.membus.snoop_fanout::overflows               0      0.00%    100.00% # Request fanout histogram
system.membus.snoop_fanout::min_value               0                       # Request fanout histogram
system.membus.snoop_fanout::max_value               0                       # Request fanout histogram
system.membus.snoop_fanout::total             1489022                       # Request fanout histogram
system.membus.power_state.pwrStateResidencyTicks::UNDEFINED 265139792000                       # Cumulative time (in ticks) in various power states
system.membus.reqLayer0.occupancy          8885845000                       # Layer occupancy (ticks)
system.membus.reqLayer0.utilization               3.4                       # Layer utilization (%)
system.membus.respLayer1.occupancy         7837886000                       # Layer occupancy (ticks)
system.membus.respLayer1.utilization              3.0                       # Layer utilization (%)
system.tol2bus.trans_dist::ReadResp             24002                       # Transaction distribution
system.tol2bus.trans_dist::WritebackDirty      2995395                       # Transaction distribution
system.tol2bus.trans_dist::WritebackClean          208                       # Transaction distribution
system.tol2bus.trans_dist::CleanEvict           15602                       # Transaction distribution
system.tol2bus.trans_dist::ReadExReq          1504930                       # Transaction distribution
system.tol2bus.trans_dist::ReadExResp         1504930                       # Transaction distribution
system.tol2bus.trans_dist::ReadCleanReq           610                       # Transaction distribution
system.tol2bus.trans_dist::ReadSharedReq        23392                       # Transaction distribution
system.tol2bus.pkt_count_system.cpu.icache.mem_side_port::system.l2.cpu_side_port         1428                       # Packet count per connected requestor and responder (bytes)
system.tol2bus.pkt_count_system.cpu.dcache.mem_side_port::system.l2.cpu_side_port      4584454                       # Packet count per connected requestor and responder (bytes)
system.tol2bus.pkt_count::total               4585882                       # Packet count per connected requestor and responder (bytes)
system.tol2bus.pkt_size_system.cpu.icache.mem_side_port::system.l2.cpu_side_port        52352                       # Cumulative packet size per connected requestor and responder (bytes)
system.tol2bus.pkt_size_system.cpu.dcache.mem_side_port::system.l2.cpu_side_port    194841024                       # Cumulative packet size per connected requestor and responder (bytes)
system.tol2bus.pkt_size::total              194893376                       # Cumulative packet size per connected requestor and responder (bytes)
system.tol2bus.snoops                         1483187                       # Total snoops (count)
system.tol2bus.snoopTraffic                  94676864                       # Total snoop traffic (bytes)
system.tol2bus.snoop_fanout::samples          3012119                       # Request fanout histogram
system.tol2bus.snoop_fanout::mean            0.005390                       # Request fanout histogram
system.tol2bus.snoop_fanout::stdev           0.077234                       # Request fanout histogram
system.tol2bus.snoop_fanout::underflows             0      0.00%      0.00% # Request fanout histogram
system.tol2bus.snoop_fanout::0                2996794     99.49%     99.49% # Request fanout histogram
system.tol2bus.snoop_fanout::1                  14415      0.48%     99.97% # Request fanout histogram
system.tol2bus.snoop_fanout::2                    910      0.03%    100.00% # Request fanout histogram
system.tol2bus.snoop_fanout::overflows              0      0.00%    100.00% # Request fanout histogram
system.tol2bus.snoop_fanout::min_value              0                       # Request fanout histogram
system.tol2bus.snoop_fanout::max_value              2                       # Request fanout histogram
system.tol2bus.snoop_fanout::total            3012119                       # Request fanout histogram
system.tol2bus.power_state.pwrStateResidencyTicks::UNDEFINED 265139792000                       # Cumulative time (in ticks) in various power states
system.tol2bus.reqLayer0.occupancy         6089504000                       # Layer occupancy (ticks)
system.tol2bus.reqLayer0.utilization              2.3                       # Layer utilization (%)
system.tol2bus.respLayer0.occupancy           1831998                       # Layer occupancy (ticks)
system.tol2bus.respLayer0.utilization             0.0                       # Layer utilization (%)
system.tol2bus.respLayer1.occupancy        4584968997                       # Layer occupancy (ticks)
system.tol2bus.respLayer1.utilization             1.7                       # Layer utilization (%)
system.voltage_domain.voltage                       1                       # Voltage in Volts

---------- End Simulation Statistics   ----------
