
---------- Begin Simulation Statistics ----------
final_tick                                57933835000                       # Number of ticks from beginning of simulation (restored from checkpoints and never reset)
host_inst_rate                                 188684                       # Simulator instruction rate (inst/s)
host_mem_usage                                 651500                       # Number of bytes of host memory used
host_op_rate                                   206479                       # Simulator op (including micro ops) rate (op/s)
host_seconds                                   529.99                       # Real time elapsed on the host
host_tick_rate                              109311898                       # Simulator tick rate (ticks/s)
sim_freq                                 1000000000000                       # Frequency of simulated ticks
sim_insts                                   100000001                       # Number of instructions simulated
sim_ops                                     109431274                       # Number of ops (including micro ops) simulated
sim_seconds                                  0.057934                       # Number of seconds simulated
sim_ticks                                 57933835000                       # Number of ticks simulated
system.cpu.committedInsts                   100000001                       # Number of instructions committed
system.cpu.committedOps                     109431274                       # Number of ops (including micro ops) committed
system.cpu.cpi                               1.158677                       # CPI: cycles per instruction
system.cpu.discardedOps                        377894                       # Number of ops (including micro ops) which were discarded before commit
system.cpu.idleCycles                         6005014                       # Total number of cycles that the object has spent stopped
system.cpu.ipc                               0.863054                       # IPC: instructions per cycle
system.cpu.numCycles                        115867670                       # number of cpu cycles simulated
system.cpu.numFetchSuspends                         0                       # Number of times Execute suspended instruction fetching
system.cpu.numWorkItemsCompleted                    0                       # number of work items this cpu completed
system.cpu.numWorkItemsStarted                      0                       # number of work items this cpu started
system.cpu.op_class_0::No_OpClass                   0      0.00%      0.00% # Class of committed instruction
system.cpu.op_class_0::IntAlu                72954993     66.67%     66.67% # Class of committed instruction
system.cpu.op_class_0::IntMult                 568364      0.52%     67.19% # Class of committed instruction
system.cpu.op_class_0::IntDiv                       0      0.00%     67.19% # Class of committed instruction
system.cpu.op_class_0::FloatAdd                     0      0.00%     67.19% # Class of committed instruction
system.cpu.op_class_0::FloatCmp                     0      0.00%     67.19% # Class of committed instruction
system.cpu.op_class_0::FloatCvt                     0      0.00%     67.19% # Class of committed instruction
system.cpu.op_class_0::FloatMult                    0      0.00%     67.19% # Class of committed instruction
system.cpu.op_class_0::FloatMultAcc                 0      0.00%     67.19% # Class of committed instruction
system.cpu.op_class_0::FloatDiv                     0      0.00%     67.19% # Class of committed instruction
system.cpu.op_class_0::FloatMisc                    0      0.00%     67.19% # Class of committed instruction
system.cpu.op_class_0::FloatSqrt                    0      0.00%     67.19% # Class of committed instruction
system.cpu.op_class_0::SimdAdd                 241336      0.22%     67.41% # Class of committed instruction
system.cpu.op_class_0::SimdAddAcc                   0      0.00%     67.41% # Class of committed instruction
system.cpu.op_class_0::SimdAlu                 154628      0.14%     67.55% # Class of committed instruction
system.cpu.op_class_0::SimdCmp                 120668      0.11%     67.66% # Class of committed instruction
system.cpu.op_class_0::SimdCvt                      0      0.00%     67.66% # Class of committed instruction
system.cpu.op_class_0::SimdMisc                 44543      0.04%     67.70% # Class of committed instruction
system.cpu.op_class_0::SimdMult                     0      0.00%     67.70% # Class of committed instruction
system.cpu.op_class_0::SimdMultAcc                  0      0.00%     67.70% # Class of committed instruction
system.cpu.op_class_0::SimdShift                    0      0.00%     67.70% # Class of committed instruction
system.cpu.op_class_0::SimdShiftAcc                 0      0.00%     67.70% # Class of committed instruction
system.cpu.op_class_0::SimdDiv                      0      0.00%     67.70% # Class of committed instruction
system.cpu.op_class_0::SimdSqrt                     0      0.00%     67.70% # Class of committed instruction
system.cpu.op_class_0::SimdFloatAdd                 0      0.00%     67.70% # Class of committed instruction
system.cpu.op_class_0::SimdFloatAlu                 0      0.00%     67.70% # Class of committed instruction
system.cpu.op_class_0::SimdFloatCmp                 0      0.00%     67.70% # Class of committed instruction
system.cpu.op_class_0::SimdFloatCvt                 0      0.00%     67.70% # Class of committed instruction
system.cpu.op_class_0::SimdFloatDiv                 0      0.00%     67.70% # Class of committed instruction
system.cpu.op_class_0::SimdFloatMisc           166417      0.15%     67.85% # Class of committed instruction
system.cpu.op_class_0::SimdFloatMult                0      0.00%     67.85% # Class of committed instruction
system.cpu.op_class_0::SimdFloatMultAcc             0      0.00%     67.85% # Class of committed instruction
system.cpu.op_class_0::SimdFloatSqrt                0      0.00%     67.85% # Class of committed instruction
system.cpu.op_class_0::SimdReduceAdd                0      0.00%     67.85% # Class of committed instruction
system.cpu.op_class_0::SimdReduceAlu                0      0.00%     67.85% # Class of committed instruction
system.cpu.op_class_0::SimdReduceCmp                0      0.00%     67.85% # Class of committed instruction
system.cpu.op_class_0::SimdFloatReduceAdd            0      0.00%     67.85% # Class of committed instruction
system.cpu.op_class_0::SimdFloatReduceCmp            0      0.00%     67.85% # Class of committed instruction
system.cpu.op_class_0::SimdAes                      0      0.00%     67.85% # Class of committed instruction
system.cpu.op_class_0::SimdAesMix                   0      0.00%     67.85% # Class of committed instruction
system.cpu.op_class_0::SimdSha1Hash                 0      0.00%     67.85% # Class of committed instruction
system.cpu.op_class_0::SimdSha1Hash2                0      0.00%     67.85% # Class of committed instruction
system.cpu.op_class_0::SimdSha256Hash               0      0.00%     67.85% # Class of committed instruction
system.cpu.op_class_0::SimdSha256Hash2              0      0.00%     67.85% # Class of committed instruction
system.cpu.op_class_0::SimdShaSigma2                0      0.00%     67.85% # Class of committed instruction
system.cpu.op_class_0::SimdShaSigma3                0      0.00%     67.85% # Class of committed instruction
system.cpu.op_class_0::SimdPredAlu                  0      0.00%     67.85% # Class of committed instruction
system.cpu.op_class_0::MemRead               20645996     18.87%     86.72% # Class of committed instruction
system.cpu.op_class_0::MemWrite              14534329     13.28%    100.00% # Class of committed instruction
system.cpu.op_class_0::FloatMemRead                 0      0.00%    100.00% # Class of committed instruction
system.cpu.op_class_0::FloatMemWrite                0      0.00%    100.00% # Class of committed instruction
system.cpu.op_class_0::IprAccess                    0      0.00%    100.00% # Class of committed instruction
system.cpu.op_class_0::InstPrefetch                 0      0.00%    100.00% # Class of committed instruction
system.cpu.op_class_0::total                109431274                       # Class of committed instruction
system.cpu.tickCycles                       109862656                       # Number of cycles that the object actually ticked
system.cpu.workload.numSyscalls                    87                       # Number of system calls
system.membus.snoop_filter.hit_multi_requests            0                       # Number of requests hitting in the snoop filter with multiple (>1) holders of the requested data.
system.membus.snoop_filter.hit_multi_snoops            0                       # Number of snoops hitting in the snoop filter with multiple (>1) holders of the requested data.
system.membus.snoop_filter.hit_single_requests        43800                       # Number of requests hitting in the snoop filter with a single holder of the requested data.
system.membus.snoop_filter.hit_single_snoops            0                       # Number of snoops hitting in the snoop filter with a single holder of the requested data.
system.membus.snoop_filter.tot_requests         92147                       # Total number of requests made to the snoop filter.
system.membus.snoop_filter.tot_snoops               0                       # Total number of snoops made to the snoop filter.
system.tol2bus.snoop_filter.hit_multi_requests         2085                       # Number of requests hitting in the snoop filter with multiple (>1) holders of the requested data.
system.tol2bus.snoop_filter.hit_multi_snoops            0                       # Number of snoops hitting in the snoop filter with multiple (>1) holders of the requested data.
system.tol2bus.snoop_filter.hit_single_requests        90218                       # Number of requests hitting in the snoop filter with a single holder of the requested data.
system.tol2bus.snoop_filter.hit_single_snoops          455                       # Number of snoops hitting in the snoop filter with a single holder of the requested data.
system.tol2bus.snoop_filter.tot_requests       181396                       # Total number of requests made to the snoop filter.
system.tol2bus.snoop_filter.tot_snoops            455                       # Total number of snoops made to the snoop filter.
system.clk_domain.clock                          1000                       # Clock period in ticks
system.cpu.branchPred.lookups                20361144                       # Number of BP lookups
system.cpu.branchPred.condPredicted          16298350                       # Number of conditional branches predicted
system.cpu.branchPred.condIncorrect             53699                       # Number of conditional branches incorrect
system.cpu.branchPred.BTBLookups              8737681                       # Number of BTB lookups
system.cpu.branchPred.BTBHits                 8736281                       # Number of BTB hits
system.cpu.branchPred.BTBHitPct             99.983977                       # BTB Hit Percentage
system.cpu.branchPred.RASUsed                 1050557                       # Number of times the RAS was used to get a target.
system.cpu.branchPred.RASIncorrect                326                       # Number of incorrect RAS predictions.
system.cpu.branchPred.indirectLookups          434276                       # Number of indirect predictor lookups.
system.cpu.branchPred.indirectHits             300028                       # Number of indirect target hits.
system.cpu.branchPred.indirectMisses           134248                       # Number of indirect misses.
system.cpu.branchPred.indirectMispredicted         1039                       # Number of mispredicted indirect branches.
system.cpu.dcache.demand_hits::.cpu.data     35563284                       # number of demand (read+write) hits
system.cpu.dcache.demand_hits::total         35563284                       # number of demand (read+write) hits
system.cpu.dcache.overall_hits::.cpu.data     35566529                       # number of overall hits
system.cpu.dcache.overall_hits::total        35566529                       # number of overall hits
system.cpu.dcache.demand_misses::.cpu.data       122839                       # number of demand (read+write) misses
system.cpu.dcache.demand_misses::total         122839                       # number of demand (read+write) misses
system.cpu.dcache.overall_misses::.cpu.data       122955                       # number of overall misses
system.cpu.dcache.overall_misses::total        122955                       # number of overall misses
system.cpu.dcache.demand_miss_latency::.cpu.data   5936323500                       # number of demand (read+write) miss cycles
system.cpu.dcache.demand_miss_latency::total   5936323500                       # number of demand (read+write) miss cycles
system.cpu.dcache.overall_miss_latency::.cpu.data   5936323500                       # number of overall miss cycles
system.cpu.dcache.overall_miss_latency::total   5936323500                       # number of overall miss cycles
system.cpu.dcache.demand_accesses::.cpu.data     35686123                       # number of demand (read+write) accesses
system.cpu.dcache.demand_accesses::total     35686123                       # number of demand (read+write) accesses
system.cpu.dcache.overall_accesses::.cpu.data     35689484                       # number of overall (read+write) accesses
system.cpu.dcache.overall_accesses::total     35689484                       # number of overall (read+write) accesses
system.cpu.dcache.demand_miss_rate::.cpu.data     0.003442                       # miss rate for demand accesses
system.cpu.dcache.demand_miss_rate::total     0.003442                       # miss rate for demand accesses
system.cpu.dcache.overall_miss_rate::.cpu.data     0.003445                       # miss rate for overall accesses
system.cpu.dcache.overall_miss_rate::total     0.003445                       # miss rate for overall accesses
system.cpu.dcache.demand_avg_miss_latency::.cpu.data 48326.048730                       # average overall miss latency
system.cpu.dcache.demand_avg_miss_latency::total 48326.048730                       # average overall miss latency
system.cpu.dcache.overall_avg_miss_latency::.cpu.data 48280.456264                       # average overall miss latency
system.cpu.dcache.overall_avg_miss_latency::total 48280.456264                       # average overall miss latency
system.cpu.dcache.blocked_cycles::no_mshrs            0                       # number of cycles access was blocked
system.cpu.dcache.blocked_cycles::no_targets            0                       # number of cycles access was blocked
system.cpu.dcache.blocked::no_mshrs                 0                       # number of cycles access was blocked
system.cpu.dcache.blocked::no_targets               0                       # number of cycles access was blocked
system.cpu.dcache.avg_blocked_cycles::no_mshrs          nan                       # average number of cycles each access was blocked
system.cpu.dcache.avg_blocked_cycles::no_targets          nan                       # average number of cycles each access was blocked
system.cpu.dcache.writebacks::.writebacks        72154                       # number of writebacks
system.cpu.dcache.writebacks::total             72154                       # number of writebacks
system.cpu.dcache.demand_mshr_hits::.cpu.data        32563                       # number of demand (read+write) MSHR hits
system.cpu.dcache.demand_mshr_hits::total        32563                       # number of demand (read+write) MSHR hits
system.cpu.dcache.overall_mshr_hits::.cpu.data        32563                       # number of overall MSHR hits
system.cpu.dcache.overall_mshr_hits::total        32563                       # number of overall MSHR hits
system.cpu.dcache.demand_mshr_misses::.cpu.data        90276                       # number of demand (read+write) MSHR misses
system.cpu.dcache.demand_mshr_misses::total        90276                       # number of demand (read+write) MSHR misses
system.cpu.dcache.overall_mshr_misses::.cpu.data        90387                       # number of overall MSHR misses
system.cpu.dcache.overall_mshr_misses::total        90387                       # number of overall MSHR misses
system.cpu.dcache.demand_mshr_miss_latency::.cpu.data   4557642500                       # number of demand (read+write) MSHR miss cycles
system.cpu.dcache.demand_mshr_miss_latency::total   4557642500                       # number of demand (read+write) MSHR miss cycles
system.cpu.dcache.overall_mshr_miss_latency::.cpu.data   4560144000                       # number of overall MSHR miss cycles
system.cpu.dcache.overall_mshr_miss_latency::total   4560144000                       # number of overall MSHR miss cycles
system.cpu.dcache.demand_mshr_miss_rate::.cpu.data     0.002530                       # mshr miss rate for demand accesses
system.cpu.dcache.demand_mshr_miss_rate::total     0.002530                       # mshr miss rate for demand accesses
system.cpu.dcache.overall_mshr_miss_rate::.cpu.data     0.002533                       # mshr miss rate for overall accesses
system.cpu.dcache.overall_mshr_miss_rate::total     0.002533                       # mshr miss rate for overall accesses
system.cpu.dcache.demand_avg_mshr_miss_latency::.cpu.data 50485.649564                       # average overall mshr miss latency
system.cpu.dcache.demand_avg_mshr_miss_latency::total 50485.649564                       # average overall mshr miss latency
system.cpu.dcache.overall_avg_mshr_miss_latency::.cpu.data 50451.325965                       # average overall mshr miss latency
system.cpu.dcache.overall_avg_mshr_miss_latency::total 50451.325965                       # average overall mshr miss latency
system.cpu.dcache.replacements                  89900                       # number of replacements
system.cpu.dcache.ReadReq_hits::.cpu.data     21379612                       # number of ReadReq hits
system.cpu.dcache.ReadReq_hits::total        21379612                       # number of ReadReq hits
system.cpu.dcache.ReadReq_misses::.cpu.data        52255                       # number of ReadReq misses
system.cpu.dcache.ReadReq_misses::total         52255                       # number of ReadReq misses
system.cpu.dcache.ReadReq_miss_latency::.cpu.data   1429801500                       # number of ReadReq miss cycles
system.cpu.dcache.ReadReq_miss_latency::total   1429801500                       # number of ReadReq miss cycles
system.cpu.dcache.ReadReq_accesses::.cpu.data     21431867                       # number of ReadReq accesses(hits+misses)
system.cpu.dcache.ReadReq_accesses::total     21431867                       # number of ReadReq accesses(hits+misses)
system.cpu.dcache.ReadReq_miss_rate::.cpu.data     0.002438                       # miss rate for ReadReq accesses
system.cpu.dcache.ReadReq_miss_rate::total     0.002438                       # miss rate for ReadReq accesses
system.cpu.dcache.ReadReq_avg_miss_latency::.cpu.data 27362.003636                       # average ReadReq miss latency
system.cpu.dcache.ReadReq_avg_miss_latency::total 27362.003636                       # average ReadReq miss latency
system.cpu.dcache.ReadReq_mshr_hits::.cpu.data         9455                       # number of ReadReq MSHR hits
system.cpu.dcache.ReadReq_mshr_hits::total         9455                       # number of ReadReq MSHR hits
system.cpu.dcache.ReadReq_mshr_misses::.cpu.data        42800                       # number of ReadReq MSHR misses
system.cpu.dcache.ReadReq_mshr_misses::total        42800                       # number of ReadReq MSHR misses
system.cpu.dcache.ReadReq_mshr_miss_latency::.cpu.data   1244025000                       # number of ReadReq MSHR miss cycles
system.cpu.dcache.ReadReq_mshr_miss_latency::total   1244025000                       # number of ReadReq MSHR miss cycles
system.cpu.dcache.ReadReq_mshr_miss_rate::.cpu.data     0.001997                       # mshr miss rate for ReadReq accesses
system.cpu.dcache.ReadReq_mshr_miss_rate::total     0.001997                       # mshr miss rate for ReadReq accesses
system.cpu.dcache.ReadReq_avg_mshr_miss_latency::.cpu.data 29066.004673                       # average ReadReq mshr miss latency
system.cpu.dcache.ReadReq_avg_mshr_miss_latency::total 29066.004673                       # average ReadReq mshr miss latency
system.cpu.dcache.WriteReq_hits::.cpu.data     14183672                       # number of WriteReq hits
system.cpu.dcache.WriteReq_hits::total       14183672                       # number of WriteReq hits
system.cpu.dcache.WriteReq_misses::.cpu.data        70584                       # number of WriteReq misses
system.cpu.dcache.WriteReq_misses::total        70584                       # number of WriteReq misses
system.cpu.dcache.WriteReq_miss_latency::.cpu.data   4506522000                       # number of WriteReq miss cycles
system.cpu.dcache.WriteReq_miss_latency::total   4506522000                       # number of WriteReq miss cycles
system.cpu.dcache.WriteReq_accesses::.cpu.data     14254256                       # number of WriteReq accesses(hits+misses)
system.cpu.dcache.WriteReq_accesses::total     14254256                       # number of WriteReq accesses(hits+misses)
system.cpu.dcache.WriteReq_miss_rate::.cpu.data     0.004952                       # miss rate for WriteReq accesses
system.cpu.dcache.WriteReq_miss_rate::total     0.004952                       # miss rate for WriteReq accesses
system.cpu.dcache.WriteReq_avg_miss_latency::.cpu.data 63846.225774                       # average WriteReq miss latency
system.cpu.dcache.WriteReq_avg_miss_latency::total 63846.225774                       # average WriteReq miss latency
system.cpu.dcache.WriteReq_mshr_hits::.cpu.data        23108                       # number of WriteReq MSHR hits
system.cpu.dcache.WriteReq_mshr_hits::total        23108                       # number of WriteReq MSHR hits
system.cpu.dcache.WriteReq_mshr_misses::.cpu.data        47476                       # number of WriteReq MSHR misses
system.cpu.dcache.WriteReq_mshr_misses::total        47476                       # number of WriteReq MSHR misses
system.cpu.dcache.WriteReq_mshr_miss_latency::.cpu.data   3313617500                       # number of WriteReq MSHR miss cycles
system.cpu.dcache.WriteReq_mshr_miss_latency::total   3313617500                       # number of WriteReq MSHR miss cycles
system.cpu.dcache.WriteReq_mshr_miss_rate::.cpu.data     0.003331                       # mshr miss rate for WriteReq accesses
system.cpu.dcache.WriteReq_mshr_miss_rate::total     0.003331                       # mshr miss rate for WriteReq accesses
system.cpu.dcache.WriteReq_avg_mshr_miss_latency::.cpu.data 69795.633583                       # average WriteReq mshr miss latency
system.cpu.dcache.WriteReq_avg_mshr_miss_latency::total 69795.633583                       # average WriteReq mshr miss latency
system.cpu.dcache.SoftPFReq_hits::.cpu.data         3245                       # number of SoftPFReq hits
system.cpu.dcache.SoftPFReq_hits::total          3245                       # number of SoftPFReq hits
system.cpu.dcache.SoftPFReq_misses::.cpu.data          116                       # number of SoftPFReq misses
system.cpu.dcache.SoftPFReq_misses::total          116                       # number of SoftPFReq misses
system.cpu.dcache.SoftPFReq_accesses::.cpu.data         3361                       # number of SoftPFReq accesses(hits+misses)
system.cpu.dcache.SoftPFReq_accesses::total         3361                       # number of SoftPFReq accesses(hits+misses)
system.cpu.dcache.SoftPFReq_miss_rate::.cpu.data     0.034514                       # miss rate for SoftPFReq accesses
system.cpu.dcache.SoftPFReq_miss_rate::total     0.034514                       # miss rate for SoftPFReq accesses
system.cpu.dcache.SoftPFReq_mshr_misses::.cpu.data          111                       # number of SoftPFReq MSHR misses
system.cpu.dcache.SoftPFReq_mshr_misses::total          111                       # number of SoftPFReq MSHR misses
system.cpu.dcache.SoftPFReq_mshr_miss_latency::.cpu.data      2501500                       # number of SoftPFReq MSHR miss cycles
system.cpu.dcache.SoftPFReq_mshr_miss_latency::total      2501500                       # number of SoftPFReq MSHR miss cycles
system.cpu.dcache.SoftPFReq_mshr_miss_rate::.cpu.data     0.033026                       # mshr miss rate for SoftPFReq accesses
system.cpu.dcache.SoftPFReq_mshr_miss_rate::total     0.033026                       # mshr miss rate for SoftPFReq accesses
system.cpu.dcache.SoftPFReq_avg_mshr_miss_latency::.cpu.data 22536.036036                       # average SoftPFReq mshr miss latency
system.cpu.dcache.SoftPFReq_avg_mshr_miss_latency::total 22536.036036                       # average SoftPFReq mshr miss latency
system.cpu.dcache.LoadLockedReq_hits::.cpu.data        89077                       # number of LoadLockedReq hits
system.cpu.dcache.LoadLockedReq_hits::total        89077                       # number of LoadLockedReq hits
system.cpu.dcache.LoadLockedReq_misses::.cpu.data           25                       # number of LoadLockedReq misses
system.cpu.dcache.LoadLockedReq_misses::total           25                       # number of LoadLockedReq misses
system.cpu.dcache.LoadLockedReq_miss_latency::.cpu.data       693000                       # number of LoadLockedReq miss cycles
system.cpu.dcache.LoadLockedReq_miss_latency::total       693000                       # number of LoadLockedReq miss cycles
system.cpu.dcache.LoadLockedReq_accesses::.cpu.data        89102                       # number of LoadLockedReq accesses(hits+misses)
system.cpu.dcache.LoadLockedReq_accesses::total        89102                       # number of LoadLockedReq accesses(hits+misses)
system.cpu.dcache.LoadLockedReq_miss_rate::.cpu.data     0.000281                       # miss rate for LoadLockedReq accesses
system.cpu.dcache.LoadLockedReq_miss_rate::total     0.000281                       # miss rate for LoadLockedReq accesses
system.cpu.dcache.LoadLockedReq_avg_miss_latency::.cpu.data        27720                       # average LoadLockedReq miss latency
system.cpu.dcache.LoadLockedReq_avg_miss_latency::total        27720                       # average LoadLockedReq miss latency
system.cpu.dcache.LoadLockedReq_mshr_misses::.cpu.data           25                       # number of LoadLockedReq MSHR misses
system.cpu.dcache.LoadLockedReq_mshr_misses::total           25                       # number of LoadLockedReq MSHR misses
system.cpu.dcache.LoadLockedReq_mshr_miss_latency::.cpu.data       668000                       # number of LoadLockedReq MSHR miss cycles
system.cpu.dcache.LoadLockedReq_mshr_miss_latency::total       668000                       # number of LoadLockedReq MSHR miss cycles
system.cpu.dcache.LoadLockedReq_mshr_miss_rate::.cpu.data     0.000281                       # mshr miss rate for LoadLockedReq accesses
system.cpu.dcache.LoadLockedReq_mshr_miss_rate::total     0.000281                       # mshr miss rate for LoadLockedReq accesses
system.cpu.dcache.LoadLockedReq_avg_mshr_miss_latency::.cpu.data        26720                       # average LoadLockedReq mshr miss latency
system.cpu.dcache.LoadLockedReq_avg_mshr_miss_latency::total        26720                       # average LoadLockedReq mshr miss latency
system.cpu.dcache.StoreCondReq_hits::.cpu.data        89080                       # number of StoreCondReq hits
system.cpu.dcache.StoreCondReq_hits::total        89080                       # number of StoreCondReq hits
system.cpu.dcache.StoreCondReq_accesses::.cpu.data        89080                       # number of StoreCondReq accesses(hits+misses)
system.cpu.dcache.StoreCondReq_accesses::total        89080                       # number of StoreCondReq accesses(hits+misses)
system.cpu.dcache.power_state.pwrStateResidencyTicks::UNDEFINED  57933835000                       # Cumulative time (in ticks) in various power states
system.cpu.dcache.tags.tagsinuse           510.952955                       # Cycle average of tags in use
system.cpu.dcache.tags.total_refs            35835098                       # Total number of references to valid blocks.
system.cpu.dcache.tags.sampled_refs             90412                       # Sample count of references to valid blocks.
system.cpu.dcache.tags.avg_refs            396.353338                       # Average number of references to valid blocks.
system.cpu.dcache.tags.warmup_cycle            176500                       # Cycle when the warmup percentage was hit.
system.cpu.dcache.tags.occ_blocks::.cpu.data   510.952955                       # Average occupied blocks per requestor
system.cpu.dcache.tags.occ_percent::.cpu.data     0.997955                       # Average percentage of cache occupancy
system.cpu.dcache.tags.occ_percent::total     0.997955                       # Average percentage of cache occupancy
system.cpu.dcache.tags.occ_task_id_blocks::1024          512                       # Occupied blocks per task id
system.cpu.dcache.tags.age_task_id_blocks_1024::0            7                       # Occupied blocks per task id
system.cpu.dcache.tags.age_task_id_blocks_1024::1           64                       # Occupied blocks per task id
system.cpu.dcache.tags.age_task_id_blocks_1024::2          383                       # Occupied blocks per task id
system.cpu.dcache.tags.age_task_id_blocks_1024::3           58                       # Occupied blocks per task id
system.cpu.dcache.tags.occ_task_id_percent::1024            1                       # Percentage of cache occupancy per task id
system.cpu.dcache.tags.tag_accesses          35958078                       # Number of tag accesses
system.cpu.dcache.tags.data_accesses         35958078                       # Number of data accesses
system.cpu.dcache.tags.power_state.pwrStateResidencyTicks::UNDEFINED  57933835000                       # Cumulative time (in ticks) in various power states
system.cpu.dtb.instHits                             0                       # ITB inst hits
system.cpu.dtb.instMisses                           0                       # ITB inst misses
system.cpu.dtb.readHits                             0                       # DTB read hits
system.cpu.dtb.readMisses                           0                       # DTB read misses
system.cpu.dtb.writeHits                            0                       # DTB write hits
system.cpu.dtb.writeMisses                          0                       # DTB write misses
system.cpu.dtb.inserts                              0                       # Number of times an entry is inserted into the TLB
system.cpu.dtb.flushTlb                             0                       # Number of times complete TLB was flushed
system.cpu.dtb.flushTlbMva                          0                       # Number of times TLB was flushed by MVA
system.cpu.dtb.flushTlbMvaAsid                      0                       # Number of times TLB was flushed by MVA & ASID
system.cpu.dtb.flushTlbAsid                         0                       # Number of times TLB was flushed by ASID
system.cpu.dtb.flushedEntries                       0                       # Number of entries that have been flushed from TLB
system.cpu.dtb.alignFaults                          0                       # Number of TLB faults due to alignment restrictions
system.cpu.dtb.prefetchFaults                       0                       # Number of TLB faults due to prefetch
system.cpu.dtb.domainFaults                         0                       # Number of TLB faults due to domain restrictions
system.cpu.dtb.permsFaults                          0                       # Number of TLB faults due to permissions restrictions
system.cpu.dtb.readAccesses                         0                       # DTB read accesses
system.cpu.dtb.writeAccesses                        0                       # DTB write accesses
system.cpu.dtb.instAccesses                         0                       # ITB inst accesses
system.cpu.dtb.hits                                 0                       # Total TLB (inst and data) hits
system.cpu.dtb.misses                               0                       # Total TLB (inst and data) misses
system.cpu.dtb.accesses                             0                       # Total TLB (inst and data) accesses
system.cpu.dtb.stage2_mmu.stage2_tlb.instHits            0                       # ITB inst hits
system.cpu.dtb.stage2_mmu.stage2_tlb.instMisses            0                       # ITB inst misses
system.cpu.dtb.stage2_mmu.stage2_tlb.readHits            0                       # DTB read hits
system.cpu.dtb.stage2_mmu.stage2_tlb.readMisses            0                       # DTB read misses
system.cpu.dtb.stage2_mmu.stage2_tlb.writeHits            0                       # DTB write hits
system.cpu.dtb.stage2_mmu.stage2_tlb.writeMisses            0                       # DTB write misses
system.cpu.dtb.stage2_mmu.stage2_tlb.inserts            0                       # Number of times an entry is inserted into the TLB
system.cpu.dtb.stage2_mmu.stage2_tlb.flushTlb            0                       # Number of times complete TLB was flushed
system.cpu.dtb.stage2_mmu.stage2_tlb.flushTlbMva            0                       # Number of times TLB was flushed by MVA
system.cpu.dtb.stage2_mmu.stage2_tlb.flushTlbMvaAsid            0                       # Number of times TLB was flushed by MVA & ASID
system.cpu.dtb.stage2_mmu.stage2_tlb.flushTlbAsid            0                       # Number of times TLB was flushed by ASID
system.cpu.dtb.stage2_mmu.stage2_tlb.flushedEntries            0                       # Number of entries that have been flushed from TLB
system.cpu.dtb.stage2_mmu.stage2_tlb.alignFaults            0                       # Number of TLB faults due to alignment restrictions
system.cpu.dtb.stage2_mmu.stage2_tlb.prefetchFaults            0                       # Number of TLB faults due to prefetch
system.cpu.dtb.stage2_mmu.stage2_tlb.domainFaults            0                       # Number of TLB faults due to domain restrictions
system.cpu.dtb.stage2_mmu.stage2_tlb.permsFaults            0                       # Number of TLB faults due to permissions restrictions
system.cpu.dtb.stage2_mmu.stage2_tlb.readAccesses            0                       # DTB read accesses
system.cpu.dtb.stage2_mmu.stage2_tlb.writeAccesses            0                       # DTB write accesses
system.cpu.dtb.stage2_mmu.stage2_tlb.instAccesses            0                       # ITB inst accesses
system.cpu.dtb.stage2_mmu.stage2_tlb.hits            0                       # Total TLB (inst and data) hits
system.cpu.dtb.stage2_mmu.stage2_tlb.misses            0                       # Total TLB (inst and data) misses
system.cpu.dtb.stage2_mmu.stage2_tlb.accesses            0                       # Total TLB (inst and data) accesses
system.cpu.dtb.stage2_mmu.stage2_tlb.walker.walks            0                       # Table walker walks requested
system.cpu.dtb.stage2_mmu.stage2_tlb.walker.requestOrigin_Requested::Data            0                       # Table walker requests started/completed, data/inst
system.cpu.dtb.stage2_mmu.stage2_tlb.walker.requestOrigin_Requested::Inst            0                       # Table walker requests started/completed, data/inst
system.cpu.dtb.stage2_mmu.stage2_tlb.walker.requestOrigin_Requested::total            0                       # Table walker requests started/completed, data/inst
system.cpu.dtb.stage2_mmu.stage2_tlb.walker.requestOrigin_Completed::Data            0                       # Table walker requests started/completed, data/inst
system.cpu.dtb.stage2_mmu.stage2_tlb.walker.requestOrigin_Completed::Inst            0                       # Table walker requests started/completed, data/inst
system.cpu.dtb.stage2_mmu.stage2_tlb.walker.requestOrigin_Completed::total            0                       # Table walker requests started/completed, data/inst
system.cpu.dtb.stage2_mmu.stage2_tlb.walker.requestOrigin::total            0                       # Table walker requests started/completed, data/inst
system.cpu.dtb.stage2_mmu.stage2_tlb.walker.power_state.pwrStateResidencyTicks::UNDEFINED  57933835000                       # Cumulative time (in ticks) in various power states
system.cpu.dtb.walker.walks                         0                       # Table walker walks requested
system.cpu.dtb.walker.requestOrigin_Requested::Data            0                       # Table walker requests started/completed, data/inst
system.cpu.dtb.walker.requestOrigin_Requested::Inst            0                       # Table walker requests started/completed, data/inst
system.cpu.dtb.walker.requestOrigin_Requested::total            0                       # Table walker requests started/completed, data/inst
system.cpu.dtb.walker.requestOrigin_Completed::Data            0                       # Table walker requests started/completed, data/inst
system.cpu.dtb.walker.requestOrigin_Completed::Inst            0                       # Table walker requests started/completed, data/inst
system.cpu.dtb.walker.requestOrigin_Completed::total            0                       # Table walker requests started/completed, data/inst
system.cpu.dtb.walker.requestOrigin::total            0                       # Table walker requests started/completed, data/inst
system.cpu.dtb.walker.power_state.pwrStateResidencyTicks::UNDEFINED  57933835000                       # Cumulative time (in ticks) in various power states
system.cpu.fetch2.intInstructions            49239811                       # Number of integer instructions successfully decoded
system.cpu.fetch2.fpInstructions                    0                       # Number of floating point instructions successfully decoded
system.cpu.fetch2.vecInstructions                   0                       # Number of SIMD instructions successfully decoded
system.cpu.fetch2.loadInstructions           17106728                       # Number of memory load instructions successfully decoded
system.cpu.fetch2.storeInstructions           9764193                       # Number of memory store instructions successfully decoded
system.cpu.fetch2.amoInstructions                   0                       # Number of memory atomic instructions successfully decoded
system.cpu.icache.demand_hits::.cpu.inst     28367500                       # number of demand (read+write) hits
system.cpu.icache.demand_hits::total         28367500                       # number of demand (read+write) hits
system.cpu.icache.overall_hits::.cpu.inst     28367500                       # number of overall hits
system.cpu.icache.overall_hits::total        28367500                       # number of overall hits
system.cpu.icache.demand_misses::.cpu.inst          770                       # number of demand (read+write) misses
system.cpu.icache.demand_misses::total            770                       # number of demand (read+write) misses
system.cpu.icache.overall_misses::.cpu.inst          770                       # number of overall misses
system.cpu.icache.overall_misses::total           770                       # number of overall misses
system.cpu.icache.demand_miss_latency::.cpu.inst     44193000                       # number of demand (read+write) miss cycles
system.cpu.icache.demand_miss_latency::total     44193000                       # number of demand (read+write) miss cycles
system.cpu.icache.overall_miss_latency::.cpu.inst     44193000                       # number of overall miss cycles
system.cpu.icache.overall_miss_latency::total     44193000                       # number of overall miss cycles
system.cpu.icache.demand_accesses::.cpu.inst     28368270                       # number of demand (read+write) accesses
system.cpu.icache.demand_accesses::total     28368270                       # number of demand (read+write) accesses
system.cpu.icache.overall_accesses::.cpu.inst     28368270                       # number of overall (read+write) accesses
system.cpu.icache.overall_accesses::total     28368270                       # number of overall (read+write) accesses
system.cpu.icache.demand_miss_rate::.cpu.inst     0.000027                       # miss rate for demand accesses
system.cpu.icache.demand_miss_rate::total     0.000027                       # miss rate for demand accesses
system.cpu.icache.overall_miss_rate::.cpu.inst     0.000027                       # miss rate for overall accesses
system.cpu.icache.overall_miss_rate::total     0.000027                       # miss rate for overall accesses
system.cpu.icache.demand_avg_miss_latency::.cpu.inst 57393.506494                       # average overall miss latency
system.cpu.icache.demand_avg_miss_latency::total 57393.506494                       # average overall miss latency
system.cpu.icache.overall_avg_miss_latency::.cpu.inst 57393.506494                       # average overall miss latency
system.cpu.icache.overall_avg_miss_latency::total 57393.506494                       # average overall miss latency
system.cpu.icache.blocked_cycles::no_mshrs            0                       # number of cycles access was blocked
system.cpu.icache.blocked_cycles::no_targets            0                       # number of cycles access was blocked
system.cpu.icache.blocked::no_mshrs                 0                       # number of cycles access was blocked
system.cpu.icache.blocked::no_targets               0                       # number of cycles access was blocked
system.cpu.icache.avg_blocked_cycles::no_mshrs          nan                       # average number of cycles each access was blocked
system.cpu.icache.avg_blocked_cycles::no_targets          nan                       # average number of cycles each access was blocked
system.cpu.icache.writebacks::.writebacks          314                       # number of writebacks
system.cpu.icache.writebacks::total               314                       # number of writebacks
system.cpu.icache.demand_mshr_misses::.cpu.inst          770                       # number of demand (read+write) MSHR misses
system.cpu.icache.demand_mshr_misses::total          770                       # number of demand (read+write) MSHR misses
system.cpu.icache.overall_mshr_misses::.cpu.inst          770                       # number of overall MSHR misses
system.cpu.icache.overall_mshr_misses::total          770                       # number of overall MSHR misses
system.cpu.icache.demand_mshr_miss_latency::.cpu.inst     43423000                       # number of demand (read+write) MSHR miss cycles
system.cpu.icache.demand_mshr_miss_latency::total     43423000                       # number of demand (read+write) MSHR miss cycles
system.cpu.icache.overall_mshr_miss_latency::.cpu.inst     43423000                       # number of overall MSHR miss cycles
system.cpu.icache.overall_mshr_miss_latency::total     43423000                       # number of overall MSHR miss cycles
system.cpu.icache.demand_mshr_miss_rate::.cpu.inst     0.000027                       # mshr miss rate for demand accesses
system.cpu.icache.demand_mshr_miss_rate::total     0.000027                       # mshr miss rate for demand accesses
system.cpu.icache.overall_mshr_miss_rate::.cpu.inst     0.000027                       # mshr miss rate for overall accesses
system.cpu.icache.overall_mshr_miss_rate::total     0.000027                       # mshr miss rate for overall accesses
system.cpu.icache.demand_avg_mshr_miss_latency::.cpu.inst 56393.506494                       # average overall mshr miss latency
system.cpu.icache.demand_avg_mshr_miss_latency::total 56393.506494                       # average overall mshr miss latency
system.cpu.icache.overall_avg_mshr_miss_latency::.cpu.inst 56393.506494                       # average overall mshr miss latency
system.cpu.icache.overall_avg_mshr_miss_latency::total 56393.506494                       # average overall mshr miss latency
system.cpu.icache.replacements                    314                       # number of replacements
system.cpu.icache.ReadReq_hits::.cpu.inst     28367500                       # number of ReadReq hits
system.cpu.icache.ReadReq_hits::total        28367500                       # number of ReadReq hits
system.cpu.icache.ReadReq_misses::.cpu.inst          770                       # number of ReadReq misses
system.cpu.icache.ReadReq_misses::total           770                       # number of ReadReq misses
system.cpu.icache.ReadReq_miss_latency::.cpu.inst     44193000                       # number of ReadReq miss cycles
system.cpu.icache.ReadReq_miss_latency::total     44193000                       # number of ReadReq miss cycles
system.cpu.icache.ReadReq_accesses::.cpu.inst     28368270                       # number of ReadReq accesses(hits+misses)
system.cpu.icache.ReadReq_accesses::total     28368270                       # number of ReadReq accesses(hits+misses)
system.cpu.icache.ReadReq_miss_rate::.cpu.inst     0.000027                       # miss rate for ReadReq accesses
system.cpu.icache.ReadReq_miss_rate::total     0.000027                       # miss rate for ReadReq accesses
system.cpu.icache.ReadReq_avg_miss_latency::.cpu.inst 57393.506494                       # average ReadReq miss latency
system.cpu.icache.ReadReq_avg_miss_latency::total 57393.506494                       # average ReadReq miss latency
system.cpu.icache.ReadReq_mshr_misses::.cpu.inst          770                       # number of ReadReq MSHR misses
system.cpu.icache.ReadReq_mshr_misses::total          770                       # number of ReadReq MSHR misses
system.cpu.icache.ReadReq_mshr_miss_latency::.cpu.inst     43423000                       # number of ReadReq MSHR miss cycles
system.cpu.icache.ReadReq_mshr_miss_latency::total     43423000                       # number of ReadReq MSHR miss cycles
system.cpu.icache.ReadReq_mshr_miss_rate::.cpu.inst     0.000027                       # mshr miss rate for ReadReq accesses
system.cpu.icache.ReadReq_mshr_miss_rate::total     0.000027                       # mshr miss rate for ReadReq accesses
system.cpu.icache.ReadReq_avg_mshr_miss_latency::.cpu.inst 56393.506494                       # average ReadReq mshr miss latency
system.cpu.icache.ReadReq_avg_mshr_miss_latency::total 56393.506494                       # average ReadReq mshr miss latency
system.cpu.icache.power_state.pwrStateResidencyTicks::UNDEFINED  57933835000                       # Cumulative time (in ticks) in various power states
system.cpu.icache.tags.tagsinuse           455.244426                       # Cycle average of tags in use
system.cpu.icache.tags.total_refs            28368270                       # Total number of references to valid blocks.
system.cpu.icache.tags.sampled_refs               770                       # Sample count of references to valid blocks.
system.cpu.icache.tags.avg_refs          36841.909091                       # Average number of references to valid blocks.
system.cpu.icache.tags.warmup_cycle             87500                       # Cycle when the warmup percentage was hit.
system.cpu.icache.tags.occ_blocks::.cpu.inst   455.244426                       # Average occupied blocks per requestor
system.cpu.icache.tags.occ_percent::.cpu.inst     0.444575                       # Average percentage of cache occupancy
system.cpu.icache.tags.occ_percent::total     0.444575                       # Average percentage of cache occupancy
system.cpu.icache.tags.occ_task_id_blocks::1024          456                       # Occupied blocks per task id
system.cpu.icache.tags.age_task_id_blocks_1024::2            1                       # Occupied blocks per task id
system.cpu.icache.tags.age_task_id_blocks_1024::4          455                       # Occupied blocks per task id
system.cpu.icache.tags.occ_task_id_percent::1024     0.445312                       # Percentage of cache occupancy per task id
system.cpu.icache.tags.tag_accesses          28369040                       # Number of tag accesses
system.cpu.icache.tags.data_accesses         28369040                       # Number of data accesses
system.cpu.icache.tags.power_state.pwrStateResidencyTicks::UNDEFINED  57933835000                       # Cumulative time (in ticks) in various power states
system.cpu.itb.instHits                             0                       # ITB inst hits
system.cpu.itb.instMisses                           0                       # ITB inst misses
system.cpu.itb.readHits                             0                       # DTB read hits
system.cpu.itb.readMisses                           0                       # DTB read misses
system.cpu.itb.writeHits                            0                       # DTB write hits
system.cpu.itb.writeMisses                          0                       # DTB write misses
system.cpu.itb.inserts                              0                       # Number of times an entry is inserted into the TLB
system.cpu.itb.flushTlb                             0                       # Number of times complete TLB was flushed
system.cpu.itb.flushTlbMva                          0                       # Number of times TLB was flushed by MVA
system.cpu.itb.flushTlbMvaAsid                      0                       # Number of times TLB was flushed by MVA & ASID
system.cpu.itb.flushTlbAsid                         0                       # Number of times TLB was flushed by ASID
system.cpu.itb.flushedEntries                       0                       # Number of entries that have been flushed from TLB
system.cpu.itb.alignFaults                          0                       # Number of TLB faults due to alignment restrictions
system.cpu.itb.prefetchFaults                       0                       # Number of TLB faults due to prefetch
system.cpu.itb.domainFaults                         0                       # Number of TLB faults due to domain restrictions
system.cpu.itb.permsFaults                          0                       # Number of TLB faults due to permissions restrictions
system.cpu.itb.readAccesses                         0                       # DTB read accesses
system.cpu.itb.writeAccesses                        0                       # DTB write accesses
system.cpu.itb.instAccesses                         0                       # ITB inst accesses
system.cpu.itb.hits                                 0                       # Total TLB (inst and data) hits
system.cpu.itb.misses                               0                       # Total TLB (inst and data) misses
system.cpu.itb.accesses                             0                       # Total TLB (inst and data) accesses
system.cpu.itb.stage2_mmu.stage2_tlb.instHits            0                       # ITB inst hits
system.cpu.itb.stage2_mmu.stage2_tlb.instMisses            0                       # ITB inst misses
system.cpu.itb.stage2_mmu.stage2_tlb.readHits            0                       # DTB read hits
system.cpu.itb.stage2_mmu.stage2_tlb.readMisses            0                       # DTB read misses
system.cpu.itb.stage2_mmu.stage2_tlb.writeHits            0                       # DTB write hits
system.cpu.itb.stage2_mmu.stage2_tlb.writeMisses            0                       # DTB write misses
system.cpu.itb.stage2_mmu.stage2_tlb.inserts            0                       # Number of times an entry is inserted into the TLB
system.cpu.itb.stage2_mmu.stage2_tlb.flushTlb            0                       # Number of times complete TLB was flushed
system.cpu.itb.stage2_mmu.stage2_tlb.flushTlbMva            0                       # Number of times TLB was flushed by MVA
system.cpu.itb.stage2_mmu.stage2_tlb.flushTlbMvaAsid            0                       # Number of times TLB was flushed by MVA & ASID
system.cpu.itb.stage2_mmu.stage2_tlb.flushTlbAsid            0                       # Number of times TLB was flushed by ASID
system.cpu.itb.stage2_mmu.stage2_tlb.flushedEntries            0                       # Number of entries that have been flushed from TLB
system.cpu.itb.stage2_mmu.stage2_tlb.alignFaults            0                       # Number of TLB faults due to alignment restrictions
system.cpu.itb.stage2_mmu.stage2_tlb.prefetchFaults            0                       # Number of TLB faults due to prefetch
system.cpu.itb.stage2_mmu.stage2_tlb.domainFaults            0                       # Number of TLB faults due to domain restrictions
system.cpu.itb.stage2_mmu.stage2_tlb.permsFaults            0                       # Number of TLB faults due to permissions restrictions
system.cpu.itb.stage2_mmu.stage2_tlb.readAccesses            0                       # DTB read accesses
system.cpu.itb.stage2_mmu.stage2_tlb.writeAccesses            0                       # DTB write accesses
system.cpu.itb.stage2_mmu.stage2_tlb.instAccesses            0                       # ITB inst accesses
system.cpu.itb.stage2_mmu.stage2_tlb.hits            0                       # Total TLB (inst and data) hits
system.cpu.itb.stage2_mmu.stage2_tlb.misses            0                       # Total TLB (inst and data) misses
system.cpu.itb.stage2_mmu.stage2_tlb.accesses            0                       # Total TLB (inst and data) accesses
system.cpu.itb.stage2_mmu.stage2_tlb.walker.walks            0                       # Table walker walks requested
system.cpu.itb.stage2_mmu.stage2_tlb.walker.requestOrigin_Requested::Data            0                       # Table walker requests started/completed, data/inst
system.cpu.itb.stage2_mmu.stage2_tlb.walker.requestOrigin_Requested::Inst            0                       # Table walker requests started/completed, data/inst
system.cpu.itb.stage2_mmu.stage2_tlb.walker.requestOrigin_Requested::total            0                       # Table walker requests started/completed, data/inst
system.cpu.itb.stage2_mmu.stage2_tlb.walker.requestOrigin_Completed::Data            0                       # Table walker requests started/completed, data/inst
system.cpu.itb.stage2_mmu.stage2_tlb.walker.requestOrigin_Completed::Inst            0                       # Table walker requests started/completed, data/inst
system.cpu.itb.stage2_mmu.stage2_tlb.walker.requestOrigin_Completed::total            0                       # Table walker requests started/completed, data/inst
system.cpu.itb.stage2_mmu.stage2_tlb.walker.requestOrigin::total            0                       # Table walker requests started/completed, data/inst
system.cpu.itb.stage2_mmu.stage2_tlb.walker.power_state.pwrStateResidencyTicks::UNDEFINED  57933835000                       # Cumulative time (in ticks) in various power states
system.cpu.itb.walker.walks                         0                       # Table walker walks requested
system.cpu.itb.walker.requestOrigin_Requested::Data            0                       # Table walker requests started/completed, data/inst
system.cpu.itb.walker.requestOrigin_Requested::Inst            0                       # Table walker requests started/completed, data/inst
system.cpu.itb.walker.requestOrigin_Requested::total            0                       # Table walker requests started/completed, data/inst
system.cpu.itb.walker.requestOrigin_Completed::Data            0                       # Table walker requests started/completed, data/inst
system.cpu.itb.walker.requestOrigin_Completed::Inst            0                       # Table walker requests started/completed, data/inst
system.cpu.itb.walker.requestOrigin_Completed::total            0                       # Table walker requests started/completed, data/inst
system.cpu.itb.walker.requestOrigin::total            0                       # Table walker requests started/completed, data/inst
system.cpu.itb.walker.power_state.pwrStateResidencyTicks::UNDEFINED  57933835000                       # Cumulative time (in ticks) in various power states
system.cpu.power_state.pwrStateResidencyTicks::ON  57933835000                       # Cumulative time (in ticks) in various power states
system.cpu.thread0.numInsts                 100000001                       # Number of Instructions committed
system.cpu.thread0.numOps                   109431274                       # Number of Ops committed
system.cpu.thread0.numMemRefs                       0                       # Number of Memory References
system.cpu_clk_domain.clock                       500                       # Clock period in ticks
system.cpu_voltage_domain.voltage                   1                       # Voltage in Volts
system.l2.demand_hits::.cpu.inst                  249                       # number of demand (read+write) hits
system.l2.demand_hits::.cpu.data                42580                       # number of demand (read+write) hits
system.l2.demand_hits::total                    42829                       # number of demand (read+write) hits
system.l2.overall_hits::.cpu.inst                 249                       # number of overall hits
system.l2.overall_hits::.cpu.data               42580                       # number of overall hits
system.l2.overall_hits::total                   42829                       # number of overall hits
system.l2.demand_misses::.cpu.inst                521                       # number of demand (read+write) misses
system.l2.demand_misses::.cpu.data              47832                       # number of demand (read+write) misses
system.l2.demand_misses::total                  48353                       # number of demand (read+write) misses
system.l2.overall_misses::.cpu.inst               521                       # number of overall misses
system.l2.overall_misses::.cpu.data             47832                       # number of overall misses
system.l2.overall_misses::total                 48353                       # number of overall misses
system.l2.demand_miss_latency::.cpu.inst     39647000                       # number of demand (read+write) miss cycles
system.l2.demand_miss_latency::.cpu.data   3940334000                       # number of demand (read+write) miss cycles
system.l2.demand_miss_latency::total       3979981000                       # number of demand (read+write) miss cycles
system.l2.overall_miss_latency::.cpu.inst     39647000                       # number of overall miss cycles
system.l2.overall_miss_latency::.cpu.data   3940334000                       # number of overall miss cycles
system.l2.overall_miss_latency::total      3979981000                       # number of overall miss cycles
system.l2.demand_accesses::.cpu.inst              770                       # number of demand (read+write) accesses
system.l2.demand_accesses::.cpu.data            90412                       # number of demand (read+write) accesses
system.l2.demand_accesses::total                91182                       # number of demand (read+write) accesses
system.l2.overall_accesses::.cpu.inst             770                       # number of overall (read+write) accesses
system.l2.overall_accesses::.cpu.data           90412                       # number of overall (read+write) accesses
system.l2.overall_accesses::total               91182                       # number of overall (read+write) accesses
system.l2.demand_miss_rate::.cpu.inst        0.676623                       # miss rate for demand accesses
system.l2.demand_miss_rate::.cpu.data        0.529045                       # miss rate for demand accesses
system.l2.demand_miss_rate::total            0.530291                       # miss rate for demand accesses
system.l2.overall_miss_rate::.cpu.inst       0.676623                       # miss rate for overall accesses
system.l2.overall_miss_rate::.cpu.data       0.529045                       # miss rate for overall accesses
system.l2.overall_miss_rate::total           0.530291                       # miss rate for overall accesses
system.l2.demand_avg_miss_latency::.cpu.inst 76097.888676                       # average overall miss latency
system.l2.demand_avg_miss_latency::.cpu.data 82378.616826                       # average overall miss latency
system.l2.demand_avg_miss_latency::total 82310.942444                       # average overall miss latency
system.l2.overall_avg_miss_latency::.cpu.inst 76097.888676                       # average overall miss latency
system.l2.overall_avg_miss_latency::.cpu.data 82378.616826                       # average overall miss latency
system.l2.overall_avg_miss_latency::total 82310.942444                       # average overall miss latency
system.l2.blocked_cycles::no_mshrs                  0                       # number of cycles access was blocked
system.l2.blocked_cycles::no_targets                0                       # number of cycles access was blocked
system.l2.blocked::no_mshrs                         0                       # number of cycles access was blocked
system.l2.blocked::no_targets                       0                       # number of cycles access was blocked
system.l2.avg_blocked_cycles::no_mshrs            nan                       # average number of cycles each access was blocked
system.l2.avg_blocked_cycles::no_targets          nan                       # average number of cycles each access was blocked
system.l2.writebacks::.writebacks               43665                       # number of writebacks
system.l2.writebacks::total                     43665                       # number of writebacks
system.l2.demand_mshr_hits::.cpu.inst               1                       # number of demand (read+write) MSHR hits
system.l2.demand_mshr_hits::.cpu.data               5                       # number of demand (read+write) MSHR hits
system.l2.demand_mshr_hits::total                   6                       # number of demand (read+write) MSHR hits
system.l2.overall_mshr_hits::.cpu.inst              1                       # number of overall MSHR hits
system.l2.overall_mshr_hits::.cpu.data              5                       # number of overall MSHR hits
system.l2.overall_mshr_hits::total                  6                       # number of overall MSHR hits
system.l2.demand_mshr_misses::.cpu.inst           520                       # number of demand (read+write) MSHR misses
system.l2.demand_mshr_misses::.cpu.data         47827                       # number of demand (read+write) MSHR misses
system.l2.demand_mshr_misses::total             48347                       # number of demand (read+write) MSHR misses
system.l2.overall_mshr_misses::.cpu.inst          520                       # number of overall MSHR misses
system.l2.overall_mshr_misses::.cpu.data        47827                       # number of overall MSHR misses
system.l2.overall_mshr_misses::total            48347                       # number of overall MSHR misses
system.l2.demand_mshr_miss_latency::.cpu.inst     34133500                       # number of demand (read+write) MSHR miss cycles
system.l2.demand_mshr_miss_latency::.cpu.data   3461738500                       # number of demand (read+write) MSHR miss cycles
system.l2.demand_mshr_miss_latency::total   3495872000                       # number of demand (read+write) MSHR miss cycles
system.l2.overall_mshr_miss_latency::.cpu.inst     34133500                       # number of overall MSHR miss cycles
system.l2.overall_mshr_miss_latency::.cpu.data   3461738500                       # number of overall MSHR miss cycles
system.l2.overall_mshr_miss_latency::total   3495872000                       # number of overall MSHR miss cycles
system.l2.demand_mshr_miss_rate::.cpu.inst     0.675325                       # mshr miss rate for demand accesses
system.l2.demand_mshr_miss_rate::.cpu.data     0.528990                       # mshr miss rate for demand accesses
system.l2.demand_mshr_miss_rate::total       0.530225                       # mshr miss rate for demand accesses
system.l2.overall_mshr_miss_rate::.cpu.inst     0.675325                       # mshr miss rate for overall accesses
system.l2.overall_mshr_miss_rate::.cpu.data     0.528990                       # mshr miss rate for overall accesses
system.l2.overall_mshr_miss_rate::total      0.530225                       # mshr miss rate for overall accesses
system.l2.demand_avg_mshr_miss_latency::.cpu.inst 65641.346154                       # average overall mshr miss latency
system.l2.demand_avg_mshr_miss_latency::.cpu.data 72380.423192                       # average overall mshr miss latency
system.l2.demand_avg_mshr_miss_latency::total 72307.940513                       # average overall mshr miss latency
system.l2.overall_avg_mshr_miss_latency::.cpu.inst 65641.346154                       # average overall mshr miss latency
system.l2.overall_avg_mshr_miss_latency::.cpu.data 72380.423192                       # average overall mshr miss latency
system.l2.overall_avg_mshr_miss_latency::total 72307.940513                       # average overall mshr miss latency
system.l2.replacements                          44255                       # number of replacements
system.l2.WritebackDirty_hits::.writebacks        72154                       # number of WritebackDirty hits
system.l2.WritebackDirty_hits::total            72154                       # number of WritebackDirty hits
system.l2.WritebackDirty_accesses::.writebacks        72154                       # number of WritebackDirty accesses(hits+misses)
system.l2.WritebackDirty_accesses::total        72154                       # number of WritebackDirty accesses(hits+misses)
system.l2.WritebackClean_hits::.writebacks          310                       # number of WritebackClean hits
system.l2.WritebackClean_hits::total              310                       # number of WritebackClean hits
system.l2.WritebackClean_accesses::.writebacks          310                       # number of WritebackClean accesses(hits+misses)
system.l2.WritebackClean_accesses::total          310                       # number of WritebackClean accesses(hits+misses)
system.l2.ReadExReq_hits::.cpu.data              8666                       # number of ReadExReq hits
system.l2.ReadExReq_hits::total                  8666                       # number of ReadExReq hits
system.l2.ReadExReq_misses::.cpu.data           38810                       # number of ReadExReq misses
system.l2.ReadExReq_misses::total               38810                       # number of ReadExReq misses
system.l2.ReadExReq_miss_latency::.cpu.data   3135608500                       # number of ReadExReq miss cycles
system.l2.ReadExReq_miss_latency::total    3135608500                       # number of ReadExReq miss cycles
system.l2.ReadExReq_accesses::.cpu.data         47476                       # number of ReadExReq accesses(hits+misses)
system.l2.ReadExReq_accesses::total             47476                       # number of ReadExReq accesses(hits+misses)
system.l2.ReadExReq_miss_rate::.cpu.data     0.817466                       # miss rate for ReadExReq accesses
system.l2.ReadExReq_miss_rate::total         0.817466                       # miss rate for ReadExReq accesses
system.l2.ReadExReq_avg_miss_latency::.cpu.data 80793.828910                       # average ReadExReq miss latency
system.l2.ReadExReq_avg_miss_latency::total 80793.828910                       # average ReadExReq miss latency
system.l2.ReadExReq_mshr_misses::.cpu.data        38810                       # number of ReadExReq MSHR misses
system.l2.ReadExReq_mshr_misses::total          38810                       # number of ReadExReq MSHR misses
system.l2.ReadExReq_mshr_miss_latency::.cpu.data   2747508500                       # number of ReadExReq MSHR miss cycles
system.l2.ReadExReq_mshr_miss_latency::total   2747508500                       # number of ReadExReq MSHR miss cycles
system.l2.ReadExReq_mshr_miss_rate::.cpu.data     0.817466                       # mshr miss rate for ReadExReq accesses
system.l2.ReadExReq_mshr_miss_rate::total     0.817466                       # mshr miss rate for ReadExReq accesses
system.l2.ReadExReq_avg_mshr_miss_latency::.cpu.data 70793.828910                       # average ReadExReq mshr miss latency
system.l2.ReadExReq_avg_mshr_miss_latency::total 70793.828910                       # average ReadExReq mshr miss latency
system.l2.ReadCleanReq_hits::.cpu.inst            249                       # number of ReadCleanReq hits
system.l2.ReadCleanReq_hits::total                249                       # number of ReadCleanReq hits
system.l2.ReadCleanReq_misses::.cpu.inst          521                       # number of ReadCleanReq misses
system.l2.ReadCleanReq_misses::total              521                       # number of ReadCleanReq misses
system.l2.ReadCleanReq_miss_latency::.cpu.inst     39647000                       # number of ReadCleanReq miss cycles
system.l2.ReadCleanReq_miss_latency::total     39647000                       # number of ReadCleanReq miss cycles
system.l2.ReadCleanReq_accesses::.cpu.inst          770                       # number of ReadCleanReq accesses(hits+misses)
system.l2.ReadCleanReq_accesses::total            770                       # number of ReadCleanReq accesses(hits+misses)
system.l2.ReadCleanReq_miss_rate::.cpu.inst     0.676623                       # miss rate for ReadCleanReq accesses
system.l2.ReadCleanReq_miss_rate::total      0.676623                       # miss rate for ReadCleanReq accesses
system.l2.ReadCleanReq_avg_miss_latency::.cpu.inst 76097.888676                       # average ReadCleanReq miss latency
system.l2.ReadCleanReq_avg_miss_latency::total 76097.888676                       # average ReadCleanReq miss latency
system.l2.ReadCleanReq_mshr_hits::.cpu.inst            1                       # number of ReadCleanReq MSHR hits
system.l2.ReadCleanReq_mshr_hits::total             1                       # number of ReadCleanReq MSHR hits
system.l2.ReadCleanReq_mshr_misses::.cpu.inst          520                       # number of ReadCleanReq MSHR misses
system.l2.ReadCleanReq_mshr_misses::total          520                       # number of ReadCleanReq MSHR misses
system.l2.ReadCleanReq_mshr_miss_latency::.cpu.inst     34133500                       # number of ReadCleanReq MSHR miss cycles
system.l2.ReadCleanReq_mshr_miss_latency::total     34133500                       # number of ReadCleanReq MSHR miss cycles
system.l2.ReadCleanReq_mshr_miss_rate::.cpu.inst     0.675325                       # mshr miss rate for ReadCleanReq accesses
system.l2.ReadCleanReq_mshr_miss_rate::total     0.675325                       # mshr miss rate for ReadCleanReq accesses
system.l2.ReadCleanReq_avg_mshr_miss_latency::.cpu.inst 65641.346154                       # average ReadCleanReq mshr miss latency
system.l2.ReadCleanReq_avg_mshr_miss_latency::total 65641.346154                       # average ReadCleanReq mshr miss latency
system.l2.ReadSharedReq_hits::.cpu.data         33914                       # number of ReadSharedReq hits
system.l2.ReadSharedReq_hits::total             33914                       # number of ReadSharedReq hits
system.l2.ReadSharedReq_misses::.cpu.data         9022                       # number of ReadSharedReq misses
system.l2.ReadSharedReq_misses::total            9022                       # number of ReadSharedReq misses
system.l2.ReadSharedReq_miss_latency::.cpu.data    804725500                       # number of ReadSharedReq miss cycles
system.l2.ReadSharedReq_miss_latency::total    804725500                       # number of ReadSharedReq miss cycles
system.l2.ReadSharedReq_accesses::.cpu.data        42936                       # number of ReadSharedReq accesses(hits+misses)
system.l2.ReadSharedReq_accesses::total         42936                       # number of ReadSharedReq accesses(hits+misses)
system.l2.ReadSharedReq_miss_rate::.cpu.data     0.210127                       # miss rate for ReadSharedReq accesses
system.l2.ReadSharedReq_miss_rate::total     0.210127                       # miss rate for ReadSharedReq accesses
system.l2.ReadSharedReq_avg_miss_latency::.cpu.data 89195.909998                       # average ReadSharedReq miss latency
system.l2.ReadSharedReq_avg_miss_latency::total 89195.909998                       # average ReadSharedReq miss latency
system.l2.ReadSharedReq_mshr_hits::.cpu.data            5                       # number of ReadSharedReq MSHR hits
system.l2.ReadSharedReq_mshr_hits::total            5                       # number of ReadSharedReq MSHR hits
system.l2.ReadSharedReq_mshr_misses::.cpu.data         9017                       # number of ReadSharedReq MSHR misses
system.l2.ReadSharedReq_mshr_misses::total         9017                       # number of ReadSharedReq MSHR misses
system.l2.ReadSharedReq_mshr_miss_latency::.cpu.data    714230000                       # number of ReadSharedReq MSHR miss cycles
system.l2.ReadSharedReq_mshr_miss_latency::total    714230000                       # number of ReadSharedReq MSHR miss cycles
system.l2.ReadSharedReq_mshr_miss_rate::.cpu.data     0.210010                       # mshr miss rate for ReadSharedReq accesses
system.l2.ReadSharedReq_mshr_miss_rate::total     0.210010                       # mshr miss rate for ReadSharedReq accesses
system.l2.ReadSharedReq_avg_mshr_miss_latency::.cpu.data 79209.271376                       # average ReadSharedReq mshr miss latency
system.l2.ReadSharedReq_avg_mshr_miss_latency::total 79209.271376                       # average ReadSharedReq mshr miss latency
system.l2.power_state.pwrStateResidencyTicks::UNDEFINED  57933835000                       # Cumulative time (in ticks) in various power states
system.l2.tags.tagsinuse                  4055.022392                       # Cycle average of tags in use
system.l2.tags.total_refs                      179305                       # Total number of references to valid blocks.
system.l2.tags.sampled_refs                     48351                       # Sample count of references to valid blocks.
system.l2.tags.avg_refs                      3.708403                       # Average number of references to valid blocks.
system.l2.tags.warmup_cycle                     77000                       # Cycle when the warmup percentage was hit.
system.l2.tags.occ_blocks::.writebacks       0.546740                       # Average occupied blocks per requestor
system.l2.tags.occ_blocks::.cpu.inst        20.264943                       # Average occupied blocks per requestor
system.l2.tags.occ_blocks::.cpu.data      4034.210709                       # Average occupied blocks per requestor
system.l2.tags.occ_percent::.writebacks      0.000133                       # Average percentage of cache occupancy
system.l2.tags.occ_percent::.cpu.inst        0.004947                       # Average percentage of cache occupancy
system.l2.tags.occ_percent::.cpu.data        0.984915                       # Average percentage of cache occupancy
system.l2.tags.occ_percent::total            0.989996                       # Average percentage of cache occupancy
system.l2.tags.occ_task_id_blocks::1024          4096                       # Occupied blocks per task id
system.l2.tags.age_task_id_blocks_1024::0            3                       # Occupied blocks per task id
system.l2.tags.age_task_id_blocks_1024::1           35                       # Occupied blocks per task id
system.l2.tags.age_task_id_blocks_1024::2          568                       # Occupied blocks per task id
system.l2.tags.age_task_id_blocks_1024::3         3296                       # Occupied blocks per task id
system.l2.tags.age_task_id_blocks_1024::4          194                       # Occupied blocks per task id
system.l2.tags.occ_task_id_percent::1024            1                       # Percentage of cache occupancy per task id
system.l2.tags.tag_accesses                   5786303                       # Number of tag accesses
system.l2.tags.data_accesses                  5786303                       # Number of data accesses
system.l2.tags.power_state.pwrStateResidencyTicks::UNDEFINED  57933835000                       # Cumulative time (in ticks) in various power states
system.mem_ctrls.avgPriority_.writebacks::samples     43665.00                       # Average QoS priority value for accepted requests
system.mem_ctrls.avgPriority_.cpu.inst::samples       520.00                       # Average QoS priority value for accepted requests
system.mem_ctrls.avgPriority_.cpu.data::samples     47822.00                       # Average QoS priority value for accepted requests
system.mem_ctrls.priorityMinLatency      0.000000018750                       # per QoS priority minimum request to response latency (s)
system.mem_ctrls.priorityMaxLatency      0.000650861750                       # per QoS priority maximum request to response latency (s)
system.mem_ctrls.numReadWriteTurnArounds         2452                       # Number of turnarounds from READ to WRITE
system.mem_ctrls.numWriteReadTurnArounds         2452                       # Number of turnarounds from WRITE to READ
system.mem_ctrls.numStayReadState              154588                       # Number of times bus staying in READ state
system.mem_ctrls.numStayWriteState              41225                       # Number of times bus staying in WRITE state
system.mem_ctrls.readReqs                       48347                       # Number of read requests accepted
system.mem_ctrls.writeReqs                      43665                       # Number of write requests accepted
system.mem_ctrls.readBursts                     48347                       # Number of controller read bursts, including those serviced by the write queue
system.mem_ctrls.writeBursts                    43665                       # Number of controller write bursts, including those merged in the write queue
system.mem_ctrls.servicedByWrQ                      5                       # Number of controller read bursts serviced by the write queue
system.mem_ctrls.mergedWrBursts                     0                       # Number of controller write bursts merged with an existing one
system.mem_ctrls.neitherReadNorWriteReqs            0                       # Number of requests that are neither read nor write
system.mem_ctrls.avgRdQLen                       1.09                       # Average read queue length when enqueuing
system.mem_ctrls.avgWrQLen                      24.01                       # Average write queue length when enqueuing
system.mem_ctrls.numRdRetry                         0                       # Number of times read queue was full causing retry
system.mem_ctrls.numWrRetry                         0                       # Number of times write queue was full causing retry
system.mem_ctrls.readPktSize::0                     0                       # Read request sizes (log2)
system.mem_ctrls.readPktSize::1                     0                       # Read request sizes (log2)
system.mem_ctrls.readPktSize::2                     0                       # Read request sizes (log2)
system.mem_ctrls.readPktSize::3                     0                       # Read request sizes (log2)
[...]
system.mem_ctrls.dram.bw_write::.writebacks     48237097                       # Write bandwidth from this memory (bytes/s)
system.mem_ctrls.dram.bw_write::total        48237097                       # Write bandwidth from this memory (bytes/s)
system.mem_ctrls.dram.bw_total::.writebacks     48237097                       # Total bandwidth to/from this memory (bytes/s)
system.mem_ctrls.dram.bw_total::.cpu.inst       574448                       # Total bandwidth to/from this memory (bytes/s)
system.mem_ctrls.dram.bw_total::.cpu.data     52834893                       # Total bandwidth to/from this memory (bytes/s)
system.mem_ctrls.dram.bw_total::total       101646439                       # Total bandwidth to/from this memory (bytes/s)
system.mem_ctrls.dram.readBursts                48342                       # Number of DRAM read bursts
system.mem_ctrls.dram.writeBursts               43647                       # Number of DRAM write bursts
system.mem_ctrls.dram.perBankRdBursts::0         3097                       # Per bank write bursts
system.mem_ctrls.dram.perBankRdBursts::1         2957                       # Per bank write bursts
system.mem_ctrls.dram.perBankRdBursts::2         3013                       # Per bank write bursts
system.mem_ctrls.dram.perBankRdBursts::3         3053                       # Per bank write bursts
system.mem_ctrls.dram.perBankRdBursts::4         3016                       # Per bank write bursts
system.mem_ctrls.dram.perBankRdBursts::5         2865                       # Per bank write bursts
system.mem_ctrls.dram.perBankRdBursts::6         2981                       # Per bank write bursts
system.mem_ctrls.dram.perBankRdBursts::7         3138                       # Per bank write bursts
system.mem_ctrls.dram.perBankRdBursts::8         2965                       # Per bank write bursts
system.mem_ctrls.dram.perBankRdBursts::9         3009                       # Per bank write bursts
system.mem_ctrls.dram.perBankRdBursts::10         3128                       # Per bank write bursts
system.mem_ctrls.dram.perBankRdBursts::11         3041                       # Per bank write bursts
system.mem_ctrls.dram.perBankRdBursts::12         3011                       # Per bank write bursts
system.mem_ctrls.dram.perBankRdBursts::13         3086                       # Per bank write bursts
system.mem_ctrls.dram.perBankRdBursts::14         3006                       # Per bank write bursts
system.mem_ctrls.dram.perBankRdBursts::15         2976                       # Per bank write bursts
system.mem_ctrls.dram.perBankWrBursts::0         2760                       # Per bank write bursts
system.mem_ctrls.dram.perBankWrBursts::1         2603                       # Per bank write bursts
system.mem_ctrls.dram.perBankWrBursts::2         2661                       # Per bank write bursts
system.mem_ctrls.dram.perBankWrBursts::3         2585                       # Per bank write bursts
system.mem_ctrls.dram.perBankWrBursts::4         2687                       # Per bank write bursts
system.mem_ctrls.dram.perBankWrBursts::5         2671                       # Per bank write bursts
system.mem_ctrls.dram.perBankWrBursts::6         2776                       # Per bank write bursts
system.mem_ctrls.dram.perBankWrBursts::7         2874                       # Per bank write bursts
system.mem_ctrls.dram.perBankWrBursts::8         2740                       # Per bank write bursts
system.mem_ctrls.dram.perBankWrBursts::9         2736                       # Per bank write bursts
system.mem_ctrls.dram.perBankWrBursts::10         2852                       # Per bank write bursts
system.mem_ctrls.dram.perBankWrBursts::11         2761                       # Per bank write bursts
system.mem_ctrls.dram.perBankWrBursts::12         2752                       # Per bank write bursts
system.mem_ctrls.dram.perBankWrBursts::13         2808                       # Per bank write bursts
system.mem_ctrls.dram.perBankWrBursts::14         2689                       # Per bank write bursts
system.mem_ctrls.dram.perBankWrBursts::15         2692                       # Per bank write bursts
system.mem_ctrls.dram.totQLat               602484500                       # Total ticks spent queuing
system.mem_ctrls.dram.totBusLat             241710000                       # Total ticks spent in databus transfers
system.mem_ctrls.dram.totMemAccLat         1508897000                       # Total ticks spent from burst creation until serviced by the DRAM
system.mem_ctrls.dram.avgQLat                12462.96                       # Average queueing delay per DRAM burst
system.mem_ctrls.dram.avgBusLat               5000.00                       # Average bus latency per DRAM burst
system.mem_ctrls.dram.avgMemAccLat           31212.96                       # Average memory access latency per DRAM burst
system.mem_ctrls.dram.readRowHits               29349                       # Number of row buffer hits during reads
system.mem_ctrls.dram.writeRowHits              26765                       # Number of row buffer hits during writes
system.mem_ctrls.dram.readRowHitRate            60.71                       # Row buffer hit rate for reads
system.mem_ctrls.dram.writeRowHitRate           61.32                       # Row buffer hit rate for writes
system.mem_ctrls.dram.bytesPerActivate::samples        35874                       # Bytes accessed per row activation
system.mem_ctrls.dram.bytesPerActivate::mean   164.108602                       # Bytes accessed per row activation
system.mem_ctrls.dram.bytesPerActivate::gmean   118.731549                       # Bytes accessed per row activation
system.mem_ctrls.dram.bytesPerActivate::stdev   167.539678                       # Bytes accessed per row activation
system.mem_ctrls.dram.bytesPerActivate::0-127        18464     51.47%     51.47% # Bytes accessed per row activation
system.mem_ctrls.dram.bytesPerActivate::128-255        11325     31.57%     83.04% # Bytes accessed per row activation
system.mem_ctrls.dram.bytesPerActivate::256-383         2631      7.33%     90.37% # Bytes accessed per row activation
system.mem_ctrls.dram.bytesPerActivate::384-511         1321      3.68%     94.05% # Bytes accessed per row activation
system.mem_ctrls.dram.bytesPerActivate::512-639          812      2.26%     96.32% # Bytes accessed per row activation
system.mem_ctrls.dram.bytesPerActivate::640-767          482      1.34%     97.66% # Bytes accessed per row activation
system.mem_ctrls.dram.bytesPerActivate::768-895          343      0.96%     98.62% # Bytes accessed per row activation
system.mem_ctrls.dram.bytesPerActivate::896-1023          335      0.93%     99.55% # Bytes accessed per row activation
system.mem_ctrls.dram.bytesPerActivate::1024-1151          161      0.45%    100.00% # Bytes accessed per row activation
system.mem_ctrls.dram.bytesPerActivate::total        35874                       # Bytes accessed per row activation
system.mem_ctrls.dram.bytesRead               3093888                       # Total number of bytes read from DRAM
system.mem_ctrls.dram.bytesWritten            2793408                       # Total number of bytes written to DRAM
system.mem_ctrls.dram.avgRdBW               53.403818                       # Average DRAM read bandwidth in MiBytes/s
system.mem_ctrls.dram.avgWrBW               48.217212                       # Average DRAM write bandwidth in MiBytes/s
system.mem_ctrls.dram.peakBW                 12800.00                       # Theoretical peak bandwidth in MiByte/s
system.mem_ctrls.dram.busUtil                    0.79                       # Data bus utilization in percentage
system.mem_ctrls.dram.busUtilRead                0.42                       # Data bus utilization in percentage for reads
system.mem_ctrls.dram.busUtilWrite               0.38                       # Data bus utilization in percentage for writes
system.mem_ctrls.dram.pageHitRate               61.00                       # Row buffer hit rate, read and write combined
system.mem_ctrls.dram.power_state.pwrStateResidencyTicks::UNDEFINED  57933835000                       # Cumulative time (in ticks) in various power states
system.mem_ctrls.dram.rank0.actEnergy       128755620                       # Energy for activate commands per rank (pJ)
system.mem_ctrls.dram.rank0.preEnergy        68431440                       # Energy for precharge commands per rank (pJ)
system.mem_ctrls.dram.rank0.readEnergy      172216800                       # Energy for read commands per rank (pJ)
system.mem_ctrls.dram.rank0.writeEnergy     112840740                       # Energy for write commands per rank (pJ)
system.mem_ctrls.dram.rank0.refreshEnergy 4572921600.000001                       # Energy for refresh commands per rank (pJ)
system.mem_ctrls.dram.rank0.actBackEnergy  16644975270                       # Energy for active background per rank (pJ)
system.mem_ctrls.dram.rank0.preBackEnergy   8229771360                       # Energy for precharge background per rank (pJ)
system.mem_ctrls.dram.rank0.actPowerDownEnergy            0                       # Energy for active power-down per rank (pJ)
system.mem_ctrls.dram.rank0.prePowerDownEnergy            0                       # Energy for precharge power-down per rank (pJ)
system.mem_ctrls.dram.rank0.selfRefreshEnergy            0                       # Energy for self refresh per rank (pJ)
system.mem_ctrls.dram.rank0.totalEnergy   29929912830                       # Total energy per rank (pJ)
system.mem_ctrls.dram.rank0.averagePower   516.622330                       # Core power per rank (mW)
system.mem_ctrls.dram.rank0.totalIdleTime            0                       # Total Idle time Per DRAM Rank
system.mem_ctrls.dram.rank0.pwrStateTime::IDLE  21244023500                       # Time in different power states
system.mem_ctrls.dram.rank0.pwrStateTime::REF   1934400000                       # Time in different power states
system.mem_ctrls.dram.rank0.pwrStateTime::SREF            0                       # Time in different power states
system.mem_ctrls.dram.rank0.pwrStateTime::PRE_PDN            0                       # Time in different power states
system.mem_ctrls.dram.rank0.pwrStateTime::ACT  34755411500                       # Time in different power states
system.mem_ctrls.dram.rank0.pwrStateTime::ACT_PDN            0                       # Time in different power states
system.mem_ctrls.dram.rank1.actEnergy       127391880                       # Energy for activate commands per rank (pJ)
system.mem_ctrls.dram.rank1.preEnergy        67710390                       # Energy for precharge commands per rank (pJ)
system.mem_ctrls.dram.rank1.readEnergy      172945080                       # Energy for read commands per rank (pJ)
system.mem_ctrls.dram.rank1.writeEnergy     114996600                       # Energy for write commands per rank (pJ)
system.mem_ctrls.dram.rank1.refreshEnergy 4572921600.000001                       # Energy for refresh commands per rank (pJ)
system.mem_ctrls.dram.rank1.actBackEnergy  16911634380                       # Energy for active background per rank (pJ)
system.mem_ctrls.dram.rank1.preBackEnergy   8005216320                       # Energy for precharge background per rank (pJ)
system.mem_ctrls.dram.rank1.actPowerDownEnergy            0                       # Energy for active power-down per rank (pJ)
system.mem_ctrls.dram.rank1.prePowerDownEnergy            0                       # Energy for precharge power-down per rank (pJ)
system.mem_ctrls.dram.rank1.selfRefreshEnergy            0                       # Energy for self refresh per rank (pJ)
system.mem_ctrls.dram.rank1.totalEnergy   29972816250                       # Total energy per rank (pJ)
system.mem_ctrls.dram.rank1.averagePower   517.362889                       # Core power per rank (mW)
system.mem_ctrls.dram.rank1.totalIdleTime            0                       # Total Idle time Per DRAM Rank
system.mem_ctrls.dram.rank1.pwrStateTime::IDLE  20658081250                       # Time in different power states
system.mem_ctrls.dram.rank1.pwrStateTime::REF   1934400000                       # Time in different power states
system.mem_ctrls.dram.rank1.pwrStateTime::SREF            0                       # Time in different power states
system.mem_ctrls.dram.rank1.pwrStateTime::PRE_PDN            0                       # Time in different power states
system.mem_ctrls.dram.rank1.pwrStateTime::ACT  35341353750                       # Time in different power states
system.mem_ctrls.dram.rank1.pwrStateTime::ACT_PDN            0                       # Time in different power states
system.mem_ctrls.power_state.pwrStateResidencyTicks::UNDEFINED  57933835000                       # Cumulative time (in ticks) in various power states
system.membus.trans_dist::ReadResp               9537                       # Transaction distribution
system.membus.trans_dist::WritebackDirty        43665                       # Transaction distribution
system.membus.trans_dist::CleanEvict              135                       # Transaction distribution
system.membus.trans_dist::ReadExReq             38810                       # Transaction distribution
system.membus.trans_dist::ReadExResp            38810                       # Transaction distribution
system.membus.trans_dist::ReadSharedReq          9537                       # Transaction distribution
system.membus.pkt_count_system.l2.mem_side_port::system.mem_ctrls.port       140494                       # Packet count per connected requestor and responder (bytes)
system.membus.pkt_count::total                 140494                       # Packet count per connected requestor and responder (bytes)
system.membus.pkt_size_system.l2.mem_side_port::system.mem_ctrls.port      5888768                       # Cumulative packet size per connected requestor and responder (bytes)
system.membus.pkt_size::total                 5888768                       # Cumulative packet size per connected requestor and responder (bytes)
system.membus.snoops                                0                       # Total snoops (count)
system.membus.snoopTraffic                          0                       # Total snoop traffic (bytes)
system.membus.snoop_fanout::samples             48347                       # Request fanout histogram
system.membus.snoop_fanout::mean                    0                       # Request fanout histogram
system.membus.snoop_fanout::stdev                   0                       # Request fanout histogram
system.membus.snoop_fanout::underflows              0      0.00%      0.00% # Request fanout histogram
system.membus.snoop_fanout::0                   48347    100.00%    100.00% # Request fanout histogram
system.membus.snoop_fanout::1                       0      0.00%    100.00% # Request fanout histogram
system.membus.snoop_fanout::overflows               0      0.00%    100.00% # Request fanout histogram
system.membus.snoop_fanout::min_value               0                       # Request fanout histogram
system.membus.snoop_fanout::max_value               0                       # Request fanout histogram
system.membus.snoop_fanout::total               48347                       # Request fanout histogram
system.membus.power_state.pwrStateResidencyTicks::UNDEFINED  57933835000                       # Cumulative time (in ticks) in various power states
system.membus.reqLayer0.occupancy           278601000                       # Layer occupancy (ticks)
system.membus.reqLayer0.utilization               0.5                       # Layer utilization (%)
system.membus.respLayer1.occupancy          258865500                       # Layer occupancy (ticks)
system.membus.respLayer1.utilization              0.4                       # Layer utilization (%)
system.tol2bus.trans_dist::ReadResp             43706                       # Transaction distribution
system.tol2bus.trans_dist::WritebackDirty       115819                       # Transaction distribution
system.tol2bus.trans_dist::WritebackClean          314                       # Transaction distribution
system.tol2bus.trans_dist::CleanEvict           18336                       # Transaction distribution
system.tol2bus.trans_dist::ReadExReq            47476                       # Transaction distribution
system.tol2bus.trans_dist::ReadExResp           47476                       # Transaction distribution
system.tol2bus.trans_dist::ReadCleanReq           770                       # Transaction distribution
system.tol2bus.trans_dist::ReadSharedReq        42936                       # Transaction distribution
system.tol2bus.pkt_count_system.cpu.icache.mem_side_port::system.l2.cpu_side_port         1854                       # Packet count per connected requestor and responder (bytes)
system.tol2bus.pkt_count_system.cpu.dcache.mem_side_port::system.l2.cpu_side_port       270724                       # Packet count per connected requestor and responder (bytes)
system.tol2bus.pkt_count::total                272578                       # Packet count per connected requestor and responder (bytes)
system.tol2bus.pkt_size_system.cpu.icache.mem_side_port::system.l2.cpu_side_port        69376                       # Cumulative packet size per connected requestor and responder (bytes)
system.tol2bus.pkt_size_system.cpu.dcache.mem_side_port::system.l2.cpu_side_port     10404224                       # Cumulative packet size per connected requestor and responder (bytes)
system.tol2bus.pkt_size::total               10473600                       # Cumulative packet size per connected requestor and responder (bytes)
system.tol2bus.snoops                           44255                       # Total snoops (count)
system.tol2bus.snoopTraffic                   2794560                       # Total snoop traffic (bytes)
system.tol2bus.snoop_fanout::samples           135437                       # Request fanout histogram
system.tol2bus.snoop_fanout::mean            0.018784                       # Request fanout histogram
system.tol2bus.snoop_fanout::stdev           0.135761                       # Request fanout histogram
system.tol2bus.snoop_fanout::underflows             0      0.00%      0.00% # Request fanout histogram
system.tol2bus.snoop_fanout::0                 132893     98.12%     98.12% # Request fanout histogram
system.tol2bus.snoop_fanout::1                   2544      1.88%    100.00% # Request fanout histogram
system.tol2bus.snoop_fanout::2                      0      0.00%    100.00% # Request fanout histogram
system.tol2bus.snoop_fanout::overflows              0      0.00%    100.00% # Request fanout histogram
system.tol2bus.snoop_fanout::min_value              0                       # Request fanout histogram
system.tol2bus.snoop_fanout::max_value              1                       # Request fanout histogram
system.tol2bus.snoop_fanout::total             135437                       # Request fanout histogram
system.tol2bus.power_state.pwrStateResidencyTicks::UNDEFINED  57933835000                       # Cumulative time (in ticks) in various power states
system.tol2bus.reqLayer0.occupancy          163166000                       # Layer occupancy (ticks)
system.tol2bus.reqLayer0.utilization              0.3                       # Layer utilization (%)
system.tol2bus.respLayer0.occupancy           1155499                       # Layer occupancy (ticks)
system.tol2bus.respLayer0.utilization             0.0                       # Layer utilization (%)
system.tol2bus.respLayer1.occupancy         135620495                       # Layer occupancy (ticks)
system.tol2bus.respLayer1.utilization             0.2                       # Layer utilization (%)
system.voltage_domain.voltage                       1                       # Voltage in Volts

---------- End Simulation Statistics   ----------
