
---------- Begin Simulation Statistics ----------
final_tick                                57671633500                       # Number of ticks from beginning of simulation (restored from checkpoints and never reset)
host_inst_rate                                 195494                       # Simulator instruction rate (inst/s)
host_mem_usage                                 655340                       # Number of bytes of host memory used
host_op_rate                                   213931                       # Simulator op (including micro ops) rate (op/s)
host_seconds                                   511.53                       # Real time elapsed on the host
host_tick_rate                              112744445                       # Simulator tick rate (ticks/s)
sim_freq                                 1000000000000                       # Frequency of simulated ticks
sim_insts                                   100000001                       # Number of instructions simulated
sim_ops                                     109431274                       # Number of ops (including micro ops) simulated
sim_seconds                                  0.057672                       # Number of seconds simulated
sim_ticks                                 57671633500                       # Number of ticks simulated
system.cpu.committedInsts                   100000001                       # Number of instructions committed
system.cpu.committedOps                     109431274                       # Number of ops (including micro ops) committed
system.cpu.cpi                               1.153433                       # CPI: cycles per instruction
system.cpu.discardedOps                        377918                       # Number of ops (including micro ops) which were discarded before commit
system.cpu.idleCycles                         5092555                       # Total number of cycles that the object has spent stopped
system.cpu.ipc                               0.866977                       # IPC: instructions per cycle
system.cpu.numCycles                        115343267                       # number of cpu cycles simulated
system.cpu.numFetchSuspends                         0                       # Number of times Execute suspended instruction fetching
system.cpu.numWorkItemsCompleted                    0                       # number of work items this cpu completed
system.cpu.numWorkItemsStarted                      0                       # number of work items this cpu started
system.cpu.op_class_0::No_OpClass                   0      0.00%      0.00% # Class of committed instruction
system.cpu.op_class_0::IntAlu                72954993     66.67%     66.67% # Class of committed instruction
system.cpu.op_class_0::IntMult                 568364      0.52%     67.19% # Class of committed instruction
system.cpu.op_class_0::IntDiv                       0      0.00%     67.19% # Class of committed instruction
system.cpu.op_class_0::FloatAdd                     0      0.00%     67.19% # Class of committed instruction
system.cpu.op_class_0::FloatCmp                     0      0.00%     67.19% # Class of committed instruction
system.cpu.op_class_0::FloatCvt                     0      0.00%     67.19% # Class of committed instruction
system.cpu.op_class_0::FloatMult                    0      0.00%     67.19% # Class of committed instruction
system.cpu.op_class_0::FloatMultAcc                 0      0.00%     67.19% # Class of committed instruction
system.cpu.op_class_0::FloatDiv                     0      0.00%     67.19% # Class of committed instruction
system.cpu.op_class_0::FloatMisc                    0      0.00%     67.19% # Class of committed instruction
system.cpu.op_class_0::FloatSqrt                    0      0.00%     67.19% # Class of committed instruction
system.cpu.op_class_0::SimdAdd                 241336      0.22%     67.41% # Class of committed instruction
system.cpu.op_class_0::SimdAddAcc                   0      0.00%     67.41% # Class of committed instruction
system.cpu.op_class_0::SimdAlu                 154628      0.14%     67.55% # Class of committed instruction
system.cpu.op_class_0::SimdCmp                 120668      0.11%     67.66% # Class of committed instruction
system.cpu.op_class_0::SimdCvt                      0      0.00%     67.66% # Class of committed instruction
system.cpu.op_class_0::SimdMisc                 44543      0.04%     67.70% # Class of committed instruction
system.cpu.op_class_0::SimdMult                     0      0.00%     67.70% # Class of committed instruction
system.cpu.op_class_0::SimdMultAcc                  0      0.00%     67.70% # Class of committed instruction
system.cpu.op_class_0::SimdShift                    0      0.00%     67.70% # Class of committed instruction
system.cpu.op_class_0::SimdShiftAcc                 0      0.00%     67.70% # Class of committed instruction
system.cpu.op_class_0::SimdDiv                      0      0.00%     67.70% # Class of committed instruction
system.cpu.op_class_0::SimdSqrt                     0      0.00%     67.70% # Class of committed instruction
system.cpu.op_class_0::SimdFloatAdd                 0      0.00%     67.70% # Class of committed instruction
system.cpu.op_class_0::SimdFloatAlu                 0      0.00%     67.70% # Class of committed instruction
system.cpu.op_class_0::SimdFloatCmp                 0      0.00%     67.70% # Class of committed instruction
system.cpu.op_class_0::SimdFloatCvt                 0      0.00%     67.70% # Class of committed instruction
system.cpu.op_class_0::SimdFloatDiv                 0      0.00%     67.70% # Class of committed instruction
system.cpu.op_class_0::SimdFloatMisc           166417      0.15%     67.85% # Class of committed instruction
system.cpu.op_class_0::SimdFloatMult                0      0.00%     67.85% # Class of committed instruction
system.cpu.op_class_0::SimdFloatMultAcc             0      0.00%     67.85% # Class of committed instruction
system.cpu.op_class_0::SimdFloatSqrt                0      0.00%     67.85% # Class of committed instruction
system.cpu.op_class_0::SimdReduceAdd                0      0.00%     67.85% # Class of committed instruction
system.cpu.op_class_0::SimdReduceAlu                0      0.00%     67.85% # Class of committed instruction
system.cpu.op_class_0::SimdReduceCmp                0      0.00%     67.85% # Class of committed instruction
system.cpu.op_class_0::SimdFloatReduceAdd            0      0.00%     67.85% # Class of committed instruction
system.cpu.op_class_0::SimdFloatReduceCmp            0      0.00%     67.85% # Class of committed instruction
system.cpu.op_class_0::SimdAes                      0      0.00%     67.85% # Class of committed instruction
system.cpu.op_class_0::SimdAesMix                   0      0.00%     67.85% # Class of committed instruction
system.cpu.op_class_0::SimdSha1Hash                 0      0.00%     67.85% # Class of committed instruction
system.cpu.op_class_0::SimdSha1Hash2                0      0.00%     67.85% # Class of committed instruction
system.cpu.op_class_0::SimdSha256Hash               0      0.00%     67.85% # Class of committed instruction
system.cpu.op_class_0::SimdSha256Hash2              0      0.00%     67.85% # Class of committed instruction
system.cpu.op_class_0::SimdShaSigma2                0      0.00%     67.85% # Class of committed instruction
system.cpu.op_class_0::SimdShaSigma3                0      0.00%     67.85% # Class of committed instruction
system.cpu.op_class_0::SimdPredAlu                  0      0.00%     67.85% # Class of committed instruction
system.cpu.op_class_0::MemRead               20645996     18.87%     86.72% # Class of committed instruction
system.cpu.op_class_0::MemWrite              14534329     13.28%    100.00% # Class of committed instruction
system.cpu.op_class_0::FloatMemRead                 0      0.00%    100.00% # Class of committed instruction
system.cpu.op_class_0::FloatMemWrite                0      0.00%    100.00% # Class of committed instruction
system.cpu.op_class_0::IprAccess                    0      0.00%    100.00% # Class of committed instruction
system.cpu.op_class_0::InstPrefetch                 0      0.00%    100.00% # Class of committed instruction
system.cpu.op_class_0::total                109431274                       # Class of committed instruction
system.cpu.tickCycles                       110250712                       # Number of cycles that the object actually ticked
system.cpu.workload.numSyscalls                    87                       # Number of system calls
system.membus.snoop_filter.hit_multi_requests            0                       # Number of requests hitting in the snoop filter with multiple (>1) holders of the requested data.
system.membus.snoop_filter.hit_multi_snoops            0                       # Number of snoops hitting in the snoop filter with multiple (>1) holders of the requested data.
system.membus.snoop_filter.hit_single_requests        26168                       # Number of requests hitting in the snoop filter with a single holder of the requested data.
system.membus.snoop_filter.hit_single_snoops            0                       # Number of snoops hitting in the snoop filter with a single holder of the requested data.
system.membus.snoop_filter.tot_requests         69171                       # Total number of requests made to the snoop filter.
system.membus.snoop_filter.tot_snoops               0                       # Total number of snoops made to the snoop filter.
system.tol2bus.snoop_filter.hit_multi_requests         2085                       # Number of requests hitting in the snoop filter with multiple (>1) holders of the requested data.
system.tol2bus.snoop_filter.hit_multi_snoops            0                       # Number of snoops hitting in the snoop filter with multiple (>1) holders of the requested data.
system.tol2bus.snoop_filter.hit_single_requests        90201                       # Number of requests hitting in the snoop filter with a single holder of the requested data.
system.tol2bus.snoop_filter.hit_single_snoops          454                       # Number of snoops hitting in the snoop filter with a single holder of the requested data.
system.tol2bus.snoop_filter.tot_requests       181362                       # Total number of requests made to the snoop filter.
system.tol2bus.snoop_filter.tot_snoops            454                       # Total number of snoops made to the snoop filter.
system.clk_domain.clock                          1000                       # Clock period in ticks
system.cpu.branchPred.lookups                20361171                       # Number of BP lookups
system.cpu.branchPred.condPredicted          16298370                       # Number of conditional branches predicted
system.cpu.branchPred.condIncorrect             53707                       # Number of conditional branches incorrect
system.cpu.branchPred.BTBLookups              8737678                       # Number of BTB lookups
system.cpu.branchPred.BTBHits                 8736278                       # Number of BTB hits
system.cpu.branchPred.BTBHitPct             99.983977                       # BTB Hit Percentage
system.cpu.branchPred.RASUsed                 1050557                       # Number of times the RAS was used to get a target.
system.cpu.branchPred.RASIncorrect                326                       # Number of incorrect RAS predictions.
system.cpu.branchPred.indirectLookups          434276                       # Number of indirect predictor lookups.
system.cpu.branchPred.indirectHits             300028                       # Number of indirect target hits.
system.cpu.branchPred.indirectMisses           134248                       # Number of indirect misses.
system.cpu.branchPred.indirectMispredicted         1039                       # Number of mispredicted indirect branches.
system.cpu.dcache.demand_hits::.cpu.data     35563295                       # number of demand (read+write) hits
system.cpu.dcache.demand_hits::total         35563295                       # number of demand (read+write) hits
system.cpu.dcache.overall_hits::.cpu.data     35566540                       # number of overall hits
system.cpu.dcache.overall_hits::total        35566540                       # number of overall hits
system.cpu.dcache.demand_misses::.cpu.data       122811                       # number of demand (read+write) misses
system.cpu.dcache.demand_misses::total         122811                       # number of demand (read+write) misses
system.cpu.dcache.overall_misses::.cpu.data       122927                       # number of overall misses
system.cpu.dcache.overall_misses::total        122927                       # number of overall misses
system.cpu.dcache.demand_miss_latency::.cpu.data   5565925000                       # number of demand (read+write) miss cycles
system.cpu.dcache.demand_miss_latency::total   5565925000                       # number of demand (read+write) miss cycles
system.cpu.dcache.overall_miss_latency::.cpu.data   5565925000                       # number of overall miss cycles
system.cpu.dcache.overall_miss_latency::total   5565925000                       # number of overall miss cycles
system.cpu.dcache.demand_accesses::.cpu.data     35686106                       # number of demand (read+write) accesses
system.cpu.dcache.demand_accesses::total     35686106                       # number of demand (read+write) accesses
system.cpu.dcache.overall_accesses::.cpu.data     35689467                       # number of overall (read+write) accesses
system.cpu.dcache.overall_accesses::total     35689467                       # number of overall (read+write) accesses
system.cpu.dcache.demand_miss_rate::.cpu.data     0.003441                       # miss rate for demand accesses
system.cpu.dcache.demand_miss_rate::total     0.003441                       # miss rate for demand accesses
system.cpu.dcache.overall_miss_rate::.cpu.data     0.003444                       # miss rate for overall accesses
system.cpu.dcache.overall_miss_rate::total     0.003444                       # miss rate for overall accesses
system.cpu.dcache.demand_avg_miss_latency::.cpu.data 45321.062446                       # average overall miss latency
system.cpu.dcache.demand_avg_miss_latency::total 45321.062446                       # average overall miss latency
system.cpu.dcache.overall_avg_miss_latency::.cpu.data 45278.295248                       # average overall miss latency
system.cpu.dcache.overall_avg_miss_latency::total 45278.295248                       # average overall miss latency
system.cpu.dcache.blocked_cycles::no_mshrs            0                       # number of cycles access was blocked
system.cpu.dcache.blocked_cycles::no_targets            0                       # number of cycles access was blocked
system.cpu.dcache.blocked::no_mshrs                 0                       # number of cycles access was blocked
system.cpu.dcache.blocked::no_targets               0                       # number of cycles access was blocked
system.cpu.dcache.avg_blocked_cycles::no_mshrs          nan                       # average number of cycles each access was blocked
system.cpu.dcache.avg_blocked_cycles::no_targets          nan                       # average number of cycles each access was blocked
system.cpu.dcache.writebacks::.writebacks        72162                       # number of writebacks
system.cpu.dcache.writebacks::total             72162                       # number of writebacks
system.cpu.dcache.demand_mshr_hits::.cpu.data        32556                       # number of demand (read+write) MSHR hits
system.cpu.dcache.demand_mshr_hits::total        32556                       # number of demand (read+write) MSHR hits
system.cpu.dcache.overall_mshr_hits::.cpu.data        32556                       # number of overall MSHR hits
system.cpu.dcache.overall_mshr_hits::total        32556                       # number of overall MSHR hits
system.cpu.dcache.demand_mshr_misses::.cpu.data        90255                       # number of demand (read+write) MSHR misses
system.cpu.dcache.demand_mshr_misses::total        90255                       # number of demand (read+write) MSHR misses
system.cpu.dcache.overall_mshr_misses::.cpu.data        90366                       # number of overall MSHR misses
system.cpu.dcache.overall_mshr_misses::total        90366                       # number of overall MSHR misses
system.cpu.dcache.demand_mshr_miss_latency::.cpu.data   4238125500                       # number of demand (read+write) MSHR miss cycles
system.cpu.dcache.demand_mshr_miss_latency::total   4238125500                       # number of demand (read+write) MSHR miss cycles
system.cpu.dcache.overall_mshr_miss_latency::.cpu.data   4240478000                       # number of overall MSHR miss cycles
system.cpu.dcache.overall_mshr_miss_latency::total   4240478000                       # number of overall MSHR miss cycles
system.cpu.dcache.demand_mshr_miss_rate::.cpu.data     0.002529                       # mshr miss rate for demand accesses
system.cpu.dcache.demand_mshr_miss_rate::total     0.002529                       # mshr miss rate for demand accesses
system.cpu.dcache.overall_mshr_miss_rate::.cpu.data     0.002532                       # mshr miss rate for overall accesses
system.cpu.dcache.overall_mshr_miss_rate::total     0.002532                       # mshr miss rate for overall accesses
system.cpu.dcache.demand_avg_mshr_miss_latency::.cpu.data 46957.237826                       # average overall mshr miss latency
system.cpu.dcache.demand_avg_mshr_miss_latency::total 46957.237826                       # average overall mshr miss latency
system.cpu.dcache.overall_avg_mshr_miss_latency::.cpu.data 46925.591484                       # average overall mshr miss latency
system.cpu.dcache.overall_avg_mshr_miss_latency::total 46925.591484                       # average overall mshr miss latency
system.cpu.dcache.replacements                  89883                       # number of replacements
system.cpu.dcache.ReadReq_hits::.cpu.data     21379627                       # number of ReadReq hits
system.cpu.dcache.ReadReq_hits::total        21379627                       # number of ReadReq hits
system.cpu.dcache.ReadReq_misses::.cpu.data        52226                       # number of ReadReq misses
system.cpu.dcache.ReadReq_misses::total         52226                       # number of ReadReq misses
system.cpu.dcache.ReadReq_miss_latency::.cpu.data   1012918000                       # number of ReadReq miss cycles
system.cpu.dcache.ReadReq_miss_latency::total   1012918000                       # number of ReadReq miss cycles
system.cpu.dcache.ReadReq_accesses::.cpu.data     21431853                       # number of ReadReq accesses(hits+misses)
system.cpu.dcache.ReadReq_accesses::total     21431853                       # number of ReadReq accesses(hits+misses)
system.cpu.dcache.ReadReq_miss_rate::.cpu.data     0.002437                       # miss rate for ReadReq accesses
system.cpu.dcache.ReadReq_miss_rate::total     0.002437                       # miss rate for ReadReq accesses
system.cpu.dcache.ReadReq_avg_miss_latency::.cpu.data 19394.899092                       # average ReadReq miss latency
system.cpu.dcache.ReadReq_avg_miss_latency::total 19394.899092                       # average ReadReq miss latency
system.cpu.dcache.ReadReq_mshr_hits::.cpu.data         9453                       # number of ReadReq MSHR hits
system.cpu.dcache.ReadReq_mshr_hits::total         9453                       # number of ReadReq MSHR hits
system.cpu.dcache.ReadReq_mshr_misses::.cpu.data        42773                       # number of ReadReq MSHR misses
system.cpu.dcache.ReadReq_mshr_misses::total        42773                       # number of ReadReq MSHR misses
system.cpu.dcache.ReadReq_mshr_miss_latency::.cpu.data    827228500                       # number of ReadReq MSHR miss cycles
system.cpu.dcache.ReadReq_mshr_miss_latency::total    827228500                       # number of ReadReq MSHR miss cycles
system.cpu.dcache.ReadReq_mshr_miss_rate::.cpu.data     0.001996                       # mshr miss rate for ReadReq accesses
system.cpu.dcache.ReadReq_mshr_miss_rate::total     0.001996                       # mshr miss rate for ReadReq accesses
system.cpu.dcache.ReadReq_avg_mshr_miss_latency::.cpu.data 19339.969139                       # average ReadReq mshr miss latency
system.cpu.dcache.ReadReq_avg_mshr_miss_latency::total 19339.969139                       # average ReadReq mshr miss latency
system.cpu.dcache.WriteReq_hits::.cpu.data     14183668                       # number of WriteReq hits
system.cpu.dcache.WriteReq_hits::total       14183668                       # number of WriteReq hits
system.cpu.dcache.WriteReq_misses::.cpu.data        70585                       # number of WriteReq misses
system.cpu.dcache.WriteReq_misses::total        70585                       # number of WriteReq misses
system.cpu.dcache.WriteReq_miss_latency::.cpu.data   4553007000                       # number of WriteReq miss cycles
system.cpu.dcache.WriteReq_miss_latency::total   4553007000                       # number of WriteReq miss cycles
system.cpu.dcache.WriteReq_accesses::.cpu.data     14254253                       # number of WriteReq accesses(hits+misses)
system.cpu.dcache.WriteReq_accesses::total     14254253                       # number of WriteReq accesses(hits+misses)
system.cpu.dcache.WriteReq_miss_rate::.cpu.data     0.004952                       # miss rate for WriteReq accesses
system.cpu.dcache.WriteReq_miss_rate::total     0.004952                       # miss rate for WriteReq accesses
system.cpu.dcache.WriteReq_avg_miss_latency::.cpu.data 64503.888928                       # average WriteReq miss latency
system.cpu.dcache.WriteReq_avg_miss_latency::total 64503.888928                       # average WriteReq miss latency
system.cpu.dcache.WriteReq_mshr_hits::.cpu.data        23103                       # number of WriteReq MSHR hits
system.cpu.dcache.WriteReq_mshr_hits::total        23103                       # number of WriteReq MSHR hits
system.cpu.dcache.WriteReq_mshr_misses::.cpu.data        47482                       # number of WriteReq MSHR misses
system.cpu.dcache.WriteReq_mshr_misses::total        47482                       # number of WriteReq MSHR misses
system.cpu.dcache.WriteReq_mshr_miss_latency::.cpu.data   3410897000                       # number of WriteReq MSHR miss cycles
system.cpu.dcache.WriteReq_mshr_miss_latency::total   3410897000                       # number of WriteReq MSHR miss cycles
system.cpu.dcache.WriteReq_mshr_miss_rate::.cpu.data     0.003331                       # mshr miss rate for WriteReq accesses
system.cpu.dcache.WriteReq_mshr_miss_rate::total     0.003331                       # mshr miss rate for WriteReq accesses
system.cpu.dcache.WriteReq_avg_mshr_miss_latency::.cpu.data 71835.579799                       # average WriteReq mshr miss latency
system.cpu.dcache.WriteReq_avg_mshr_miss_latency::total 71835.579799                       # average WriteReq mshr miss latency
system.cpu.dcache.SoftPFReq_hits::.cpu.data         3245                       # number of SoftPFReq hits
system.cpu.dcache.SoftPFReq_hits::total          3245                       # number of SoftPFReq hits
system.cpu.dcache.SoftPFReq_misses::.cpu.data          116                       # number of SoftPFReq misses
system.cpu.dcache.SoftPFReq_misses::total          116                       # number of SoftPFReq misses
system.cpu.dcache.SoftPFReq_accesses::.cpu.data         3361                       # number of SoftPFReq accesses(hits+misses)
system.cpu.dcache.SoftPFReq_accesses::total         3361                       # number of SoftPFReq accesses(hits+misses)
system.cpu.dcache.SoftPFReq_miss_rate::.cpu.data     0.034514                       # miss rate for SoftPFReq accesses
system.cpu.dcache.SoftPFReq_miss_rate::total     0.034514                       # miss rate for SoftPFReq accesses
system.cpu.dcache.SoftPFReq_mshr_misses::.cpu.data          111                       # number of SoftPFReq MSHR misses
system.cpu.dcache.SoftPFReq_mshr_misses::total          111                       # number of SoftPFReq MSHR misses
system.cpu.dcache.SoftPFReq_mshr_miss_latency::.cpu.data      2352500                       # number of SoftPFReq MSHR miss cycles
system.cpu.dcache.SoftPFReq_mshr_miss_latency::total      2352500                       # number of SoftPFReq MSHR miss cycles
system.cpu.dcache.SoftPFReq_mshr_miss_rate::.cpu.data     0.033026                       # mshr miss rate for SoftPFReq accesses
system.cpu.dcache.SoftPFReq_mshr_miss_rate::total     0.033026                       # mshr miss rate for SoftPFReq accesses
system.cpu.dcache.SoftPFReq_avg_mshr_miss_latency::.cpu.data 21193.693694                       # average SoftPFReq mshr miss latency
system.cpu.dcache.SoftPFReq_avg_mshr_miss_latency::total 21193.693694                       # average SoftPFReq mshr miss latency
system.cpu.dcache.LoadLockedReq_hits::.cpu.data        89077                       # number of LoadLockedReq hits
system.cpu.dcache.LoadLockedReq_hits::total        89077                       # number of LoadLockedReq hits
system.cpu.dcache.LoadLockedReq_misses::.cpu.data           29                       # number of LoadLockedReq misses
system.cpu.dcache.LoadLockedReq_misses::total           29                       # number of LoadLockedReq misses
system.cpu.dcache.LoadLockedReq_miss_latency::.cpu.data       801000                       # number of LoadLockedReq miss cycles
system.cpu.dcache.LoadLockedReq_miss_latency::total       801000                       # number of LoadLockedReq miss cycles
system.cpu.dcache.LoadLockedReq_accesses::.cpu.data        89106                       # number of LoadLockedReq accesses(hits+misses)
system.cpu.dcache.LoadLockedReq_accesses::total        89106                       # number of LoadLockedReq accesses(hits+misses)
system.cpu.dcache.LoadLockedReq_miss_rate::.cpu.data     0.000325                       # miss rate for LoadLockedReq accesses
system.cpu.dcache.LoadLockedReq_miss_rate::total     0.000325                       # miss rate for LoadLockedReq accesses
system.cpu.dcache.LoadLockedReq_avg_miss_latency::.cpu.data 27620.689655                       # average LoadLockedReq miss latency
system.cpu.dcache.LoadLockedReq_avg_miss_latency::total 27620.689655                       # average LoadLockedReq miss latency
system.cpu.dcache.LoadLockedReq_mshr_misses::.cpu.data           29                       # number of LoadLockedReq MSHR misses
system.cpu.dcache.LoadLockedReq_mshr_misses::total           29                       # number of LoadLockedReq MSHR misses
system.cpu.dcache.LoadLockedReq_mshr_miss_latency::.cpu.data       772000                       # number of LoadLockedReq MSHR miss cycles
system.cpu.dcache.LoadLockedReq_mshr_miss_latency::total       772000                       # number of LoadLockedReq MSHR miss cycles
system.cpu.dcache.LoadLockedReq_mshr_miss_rate::.cpu.data     0.000325                       # mshr miss rate for LoadLockedReq accesses
system.cpu.dcache.LoadLockedReq_mshr_miss_rate::total     0.000325                       # mshr miss rate for LoadLockedReq accesses
system.cpu.dcache.LoadLockedReq_avg_mshr_miss_latency::.cpu.data 26620.689655                       # average LoadLockedReq mshr miss latency
system.cpu.dcache.LoadLockedReq_avg_mshr_miss_latency::total 26620.689655                       # average LoadLockedReq mshr miss latency
system.cpu.dcache.StoreCondReq_hits::.cpu.data        89080                       # number of StoreCondReq hits
system.cpu.dcache.StoreCondReq_hits::total        89080                       # number of StoreCondReq hits
system.cpu.dcache.StoreCondReq_accesses::.cpu.data        89080                       # number of StoreCondReq accesses(hits+misses)
system.cpu.dcache.StoreCondReq_accesses::total        89080                       # number of StoreCondReq accesses(hits+misses)
system.cpu.dcache.power_state.pwrStateResidencyTicks::UNDEFINED  57671633500                       # Cumulative time (in ticks) in various power states
system.cpu.dcache.tags.tagsinuse           510.948195                       # Cycle average of tags in use
system.cpu.dcache.tags.total_refs            35835092                       # Total number of references to valid blocks.
system.cpu.dcache.tags.sampled_refs             90395                       # Sample count of references to valid blocks.
system.cpu.dcache.tags.avg_refs            396.427811                       # Average number of references to valid blocks.
system.cpu.dcache.tags.warmup_cycle            176500                       # Cycle when the warmup percentage was hit.
system.cpu.dcache.tags.occ_blocks::.cpu.data   510.948195                       # Average occupied blocks per requestor
system.cpu.dcache.tags.occ_percent::.cpu.data     0.997946                       # Average percentage of cache occupancy
system.cpu.dcache.tags.occ_percent::total     0.997946                       # Average percentage of cache occupancy
system.cpu.dcache.tags.occ_task_id_blocks::1024          512                       # Occupied blocks per task id
system.cpu.dcache.tags.age_task_id_blocks_1024::0            7                       # Occupied blocks per task id
system.cpu.dcache.tags.age_task_id_blocks_1024::1           64                       # Occupied blocks per task id
system.cpu.dcache.tags.age_task_id_blocks_1024::2          383                       # Occupied blocks per task id
system.cpu.dcache.tags.age_task_id_blocks_1024::3           58                       # Occupied blocks per task id
system.cpu.dcache.tags.occ_task_id_percent::1024            1                       # Percentage of cache occupancy per task id
system.cpu.dcache.tags.tag_accesses          35958048                       # Number of tag accesses
system.cpu.dcache.tags.data_accesses         35958048                       # Number of data accesses
system.cpu.dcache.tags.power_state.pwrStateResidencyTicks::UNDEFINED  57671633500                       # Cumulative time (in ticks) in various power states
system.cpu.dtb.instHits                             0                       # ITB inst hits
system.cpu.dtb.instMisses                           0                       # ITB inst misses
system.cpu.dtb.readHits                             0                       # DTB read hits
system.cpu.dtb.readMisses                           0                       # DTB read misses
system.cpu.dtb.writeHits                            0                       # DTB write hits
system.cpu.dtb.writeMisses                          0                       # DTB write misses
system.cpu.dtb.inserts                              0                       # Number of times an entry is inserted into the TLB
system.cpu.dtb.flushTlb                             0                       # Number of times complete TLB was flushed
system.cpu.dtb.flushTlbMva                          0                       # Number of times TLB was flushed by MVA
system.cpu.dtb.flushTlbMvaAsid                      0                       # Number of times TLB was flushed by MVA & ASID
system.cpu.dtb.flushTlbAsid                         0                       # Number of times TLB was flushed by ASID
system.cpu.dtb.flushedEntries                       0                       # Number of entries that have been flushed from TLB
system.cpu.dtb.alignFaults                          0                       # Number of TLB faults due to alignment restrictions
system.cpu.dtb.prefetchFaults                       0                       # Number of TLB faults due to prefetch
system.cpu.dtb.domainFaults                         0                       # Number of TLB faults due to domain restrictions
system.cpu.dtb.permsFaults                          0                       # Number of TLB faults due to permissions restrictions
system.cpu.dtb.readAccesses                         0                       # DTB read accesses
system.cpu.dtb.writeAccesses                        0                       # DTB write accesses
system.cpu.dtb.instAccesses                         0                       # ITB inst accesses
system.cpu.dtb.hits                                 0                       # Total TLB (inst and data) hits
system.cpu.dtb.misses                               0                       # Total TLB (inst and data) misses
system.cpu.dtb.accesses                             0                       # Total TLB (inst and data) accesses
system.cpu.dtb.stage2_mmu.stage2_tlb.instHits            0                       # ITB inst hits
system.cpu.dtb.stage2_mmu.stage2_tlb.instMisses            0                       # ITB inst misses
system.cpu.dtb.stage2_mmu.stage2_tlb.readHits            0                       # DTB read hits
system.cpu.dtb.stage2_mmu.stage2_tlb.readMisses            0                       # DTB read misses
system.cpu.dtb.stage2_mmu.stage2_tlb.writeHits            0                       # DTB write hits
system.cpu.dtb.stage2_mmu.stage2_tlb.writeMisses            0                       # DTB write misses
system.cpu.dtb.stage2_mmu.stage2_tlb.inserts            0                       # Number of times an entry is inserted into the TLB
system.cpu.dtb.stage2_mmu.stage2_tlb.flushTlb            0                       # Number of times complete TLB was flushed
system.cpu.dtb.stage2_mmu.stage2_tlb.flushTlbMva            0                       # Number of times TLB was flushed by MVA
system.cpu.dtb.stage2_mmu.stage2_tlb.flushTlbMvaAsid            0                       # Number of times TLB was flushed by MVA & ASID
system.cpu.dtb.stage2_mmu.stage2_tlb.flushTlbAsid            0                       # Number of times TLB was flushed by ASID
system.cpu.dtb.stage2_mmu.stage2_tlb.flushedEntries            0                       # Number of entries that have been flushed from TLB
system.cpu.dtb.stage2_mmu.stage2_tlb.alignFaults            0                       # Number of TLB faults due to alignment restrictions
system.cpu.dtb.stage2_mmu.stage2_tlb.prefetchFaults            0                       # Number of TLB faults due to prefetch
system.cpu.dtb.stage2_mmu.stage2_tlb.domainFaults            0                       # Number of TLB faults due to domain restrictions
system.cpu.dtb.stage2_mmu.stage2_tlb.permsFaults            0                       # Number of TLB faults due to permissions restrictions
system.cpu.dtb.stage2_mmu.stage2_tlb.readAccesses            0                       # DTB read accesses
system.cpu.dtb.stage2_mmu.stage2_tlb.writeAccesses            0                       # DTB write accesses
system.cpu.dtb.stage2_mmu.stage2_tlb.instAccesses            0                       # ITB inst accesses
system.cpu.dtb.stage2_mmu.stage2_tlb.hits            0                       # Total TLB (inst and data) hits
system.cpu.dtb.stage2_mmu.stage2_tlb.misses            0                       # Total TLB (inst and data) misses
system.cpu.dtb.stage2_mmu.stage2_tlb.accesses            0                       # Total TLB (inst and data) accesses
system.cpu.dtb.stage2_mmu.stage2_tlb.walker.walks            0                       # Table walker walks requested
system.cpu.dtb.stage2_mmu.stage2_tlb.walker.requestOrigin_Requested::Data            0                       # Table walker requests started/completed, data/inst
system.cpu.dtb.stage2_mmu.stage2_tlb.walker.requestOrigin_Requested::Inst            0                       # Table walker requests started/completed, data/inst
system.cpu.dtb.stage2_mmu.stage2_tlb.walker.requestOrigin_Requested::total            0                       # Table walker requests started/completed, data/inst
system.cpu.dtb.stage2_mmu.stage2_tlb.walker.requestOrigin_Completed::Data            0                       # Table walker requests started/completed, data/inst
system.cpu.dtb.stage2_mmu.stage2_tlb.walker.requestOrigin_Completed::Inst            0                       # Table walker requests started/completed, data/inst
system.cpu.dtb.stage2_mmu.stage2_tlb.walker.requestOrigin_Completed::total            0                       # Table walker requests started/completed, data/inst
system.cpu.dtb.stage2_mmu.stage2_tlb.walker.requestOrigin::total            0                       # Table walker requests started/completed, data/inst
system.cpu.dtb.stage2_mmu.stage2_tlb.walker.power_state.pwrStateResidencyTicks::UNDEFINED  57671633500                       # Cumulative time (in ticks) in various power states
system.cpu.dtb.walker.walks                         0                       # Table walker walks requested
system.cpu.dtb.walker.requestOrigin_Requested::Data            0                       # Table walker requests started/completed, data/inst
system.cpu.dtb.walker.requestOrigin_Requested::Inst            0                       # Table walker requests started/completed, data/inst
system.cpu.dtb.walker.requestOrigin_Requested::total            0                       # Table walker requests started/completed, data/inst
system.cpu.dtb.walker.requestOrigin_Completed::Data            0                       # Table walker requests started/completed, data/inst
system.cpu.dtb.walker.requestOrigin_Completed::Inst            0                       # Table walker requests started/completed, data/inst
system.cpu.dtb.walker.requestOrigin_Completed::total            0                       # Table walker requests started/completed, data/inst
system.cpu.dtb.walker.requestOrigin::total            0                       # Table walker requests started/completed, data/inst
system.cpu.dtb.walker.power_state.pwrStateResidencyTicks::UNDEFINED  57671633500                       # Cumulative time (in ticks) in various power states
system.cpu.fetch2.intInstructions            49239894                       # Number of integer instructions successfully decoded
system.cpu.fetch2.fpInstructions                    0                       # Number of floating point instructions successfully decoded
system.cpu.fetch2.vecInstructions                   0                       # Number of SIMD instructions successfully decoded
system.cpu.fetch2.loadInstructions           17106761                       # Number of memory load instructions successfully decoded
system.cpu.fetch2.storeInstructions           9764229                       # Number of memory store instructions successfully decoded
system.cpu.fetch2.amoInstructions                   0                       # Number of memory atomic instructions successfully decoded
system.cpu.icache.demand_hits::.cpu.inst     28367521                       # number of demand (read+write) hits
system.cpu.icache.demand_hits::total         28367521                       # number of demand (read+write) hits
system.cpu.icache.overall_hits::.cpu.inst     28367521                       # number of overall hits
system.cpu.icache.overall_hits::total        28367521                       # number of overall hits
system.cpu.icache.demand_misses::.cpu.inst          770                       # number of demand (read+write) misses
system.cpu.icache.demand_misses::total            770                       # number of demand (read+write) misses
system.cpu.icache.overall_misses::.cpu.inst          770                       # number of overall misses
system.cpu.icache.overall_misses::total           770                       # number of overall misses
system.cpu.icache.demand_miss_latency::.cpu.inst     44165500                       # number of demand (read+write) miss cycles
system.cpu.icache.demand_miss_latency::total     44165500                       # number of demand (read+write) miss cycles
system.cpu.icache.overall_miss_latency::.cpu.inst     44165500                       # number of overall miss cycles
system.cpu.icache.overall_miss_latency::total     44165500                       # number of overall miss cycles
system.cpu.icache.demand_accesses::.cpu.inst     28368291                       # number of demand (read+write) accesses
system.cpu.icache.demand_accesses::total     28368291                       # number of demand (read+write) accesses
system.cpu.icache.overall_accesses::.cpu.inst     28368291                       # number of overall (read+write) accesses
system.cpu.icache.overall_accesses::total     28368291                       # number of overall (read+write) accesses
system.cpu.icache.demand_miss_rate::.cpu.inst     0.000027                       # miss rate for demand accesses
system.cpu.icache.demand_miss_rate::total     0.000027                       # miss rate for demand accesses
system.cpu.icache.overall_miss_rate::.cpu.inst     0.000027                       # miss rate for overall accesses
system.cpu.icache.overall_miss_rate::total     0.000027                       # miss rate for overall accesses
system.cpu.icache.demand_avg_miss_latency::.cpu.inst 57357.792208                       # average overall miss latency
system.cpu.icache.demand_avg_miss_latency::total 57357.792208                       # average overall miss latency
system.cpu.icache.overall_avg_miss_latency::.cpu.inst 57357.792208                       # average overall miss latency
system.cpu.icache.overall_avg_miss_latency::total 57357.792208                       # average overall miss latency
system.cpu.icache.blocked_cycles::no_mshrs            0                       # number of cycles access was blocked
system.cpu.icache.blocked_cycles::no_targets            0                       # number of cycles access was blocked
system.cpu.icache.blocked::no_mshrs                 0                       # number of cycles access was blocked
system.cpu.icache.blocked::no_targets               0                       # number of cycles access was blocked
system.cpu.icache.avg_blocked_cycles::no_mshrs          nan                       # average number of cycles each access was blocked
system.cpu.icache.avg_blocked_cycles::no_targets          nan                       # average number of cycles each access was blocked
system.cpu.icache.writebacks::.writebacks          314                       # number of writebacks
system.cpu.icache.writebacks::total               314                       # number of writebacks
system.cpu.icache.demand_mshr_misses::.cpu.inst          770                       # number of demand (read+write) MSHR misses
system.cpu.icache.demand_mshr_misses::total          770                       # number of demand (read+write) MSHR misses
system.cpu.icache.overall_mshr_misses::.cpu.inst          770                       # number of overall MSHR misses
system.cpu.icache.overall_mshr_misses::total          770                       # number of overall MSHR misses
system.cpu.icache.demand_mshr_miss_latency::.cpu.inst     43395500                       # number of demand (read+write) MSHR miss cycles
system.cpu.icache.demand_mshr_miss_latency::total     43395500                       # number of demand (read+write) MSHR miss cycles
system.cpu.icache.overall_mshr_miss_latency::.cpu.inst     43395500                       # number of overall MSHR miss cycles
system.cpu.icache.overall_mshr_miss_latency::total     43395500                       # number of overall MSHR miss cycles
system.cpu.icache.demand_mshr_miss_rate::.cpu.inst     0.000027                       # mshr miss rate for demand accesses
system.cpu.icache.demand_mshr_miss_rate::total     0.000027                       # mshr miss rate for demand accesses
system.cpu.icache.overall_mshr_miss_rate::.cpu.inst     0.000027                       # mshr miss rate for overall accesses
system.cpu.icache.overall_mshr_miss_rate::total     0.000027                       # mshr miss rate for overall accesses
system.cpu.icache.demand_avg_mshr_miss_latency::.cpu.inst 56357.792208                       # average overall mshr miss latency
system.cpu.icache.demand_avg_mshr_miss_latency::total 56357.792208                       # average overall mshr miss latency
system.cpu.icache.overall_avg_mshr_miss_latency::.cpu.inst 56357.792208                       # average overall mshr miss latency
system.cpu.icache.overall_avg_mshr_miss_latency::total 56357.792208                       # average overall mshr miss latency
system.cpu.icache.replacements                    314                       # number of replacements
system.cpu.icache.ReadReq_hits::.cpu.inst     28367521                       # number of ReadReq hits
system.cpu.icache.ReadReq_hits::total        28367521                       # number of ReadReq hits
system.cpu.icache.ReadReq_misses::.cpu.inst          770                       # number of ReadReq misses
system.cpu.icache.ReadReq_misses::total           770                       # number of ReadReq misses
system.cpu.icache.ReadReq_miss_latency::.cpu.inst     44165500                       # number of ReadReq miss cycles
system.cpu.icache.ReadReq_miss_latency::total     44165500                       # number of ReadReq miss cycles
system.cpu.icache.ReadReq_accesses::.cpu.inst     28368291                       # number of ReadReq accesses(hits+misses)
system.cpu.icache.ReadReq_accesses::total     28368291                       # number of ReadReq accesses(hits+misses)
system.cpu.icache.ReadReq_miss_rate::.cpu.inst     0.000027                       # miss rate for ReadReq accesses
system.cpu.icache.ReadReq_miss_rate::total     0.000027                       # miss rate for ReadReq accesses
system.cpu.icache.ReadReq_avg_miss_latency::.cpu.inst 57357.792208                       # average ReadReq miss latency
system.cpu.icache.ReadReq_avg_miss_latency::total 57357.792208                       # average ReadReq miss latency
system.cpu.icache.ReadReq_mshr_misses::.cpu.inst          770                       # number of ReadReq MSHR misses
system.cpu.icache.ReadReq_mshr_misses::total          770                       # number of ReadReq MSHR misses
system.cpu.icache.ReadReq_mshr_miss_latency::.cpu.inst     43395500                       # number of ReadReq MSHR miss cycles
system.cpu.icache.ReadReq_mshr_miss_latency::total     43395500                       # number of ReadReq MSHR miss cycles
system.cpu.icache.ReadReq_mshr_miss_rate::.cpu.inst     0.000027                       # mshr miss rate for ReadReq accesses
system.cpu.icache.ReadReq_mshr_miss_rate::total     0.000027                       # mshr miss rate for ReadReq accesses
system.cpu.icache.ReadReq_avg_mshr_miss_latency::.cpu.inst 56357.792208                       # average ReadReq mshr miss latency
system.cpu.icache.ReadReq_avg_mshr_miss_latency::total 56357.792208                       # average ReadReq mshr miss latency
system.cpu.icache.power_state.pwrStateResidencyTicks::UNDEFINED  57671633500                       # Cumulative time (in ticks) in various power states
system.cpu.icache.tags.tagsinuse           455.244719                       # Cycle average of tags in use
system.cpu.icache.tags.total_refs            28368291                       # Total number of references to valid blocks.
system.cpu.icache.tags.sampled_refs               770                       # Sample count of references to valid blocks.
system.cpu.icache.tags.avg_refs          36841.936364                       # Average number of references to valid blocks.
system.cpu.icache.tags.warmup_cycle             87500                       # Cycle when the warmup percentage was hit.
system.cpu.icache.tags.occ_blocks::.cpu.inst   455.244719                       # Average occupied blocks per requestor
system.cpu.icache.tags.occ_percent::.cpu.inst     0.444575                       # Average percentage of cache occupancy
system.cpu.icache.tags.occ_percent::total     0.444575                       # Average percentage of cache occupancy
system.cpu.icache.tags.occ_task_id_blocks::1024          456                       # Occupied blocks per task id
system.cpu.icache.tags.age_task_id_blocks_1024::2            1                       # Occupied blocks per task id
system.cpu.icache.tags.age_task_id_blocks_1024::4          455                       # Occupied blocks per task id
system.cpu.icache.tags.occ_task_id_percent::1024     0.445312                       # Percentage of cache occupancy per task id
system.cpu.icache.tags.tag_accesses          28369061                       # Number of tag accesses
system.cpu.icache.tags.data_accesses         28369061                       # Number of data accesses
system.cpu.icache.tags.power_state.pwrStateResidencyTicks::UNDEFINED  57671633500                       # Cumulative time (in ticks) in various power states
system.cpu.itb.instHits                             0                       # ITB inst hits
system.cpu.itb.instMisses                           0                       # ITB inst misses
system.cpu.itb.readHits                             0                       # DTB read hits
system.cpu.itb.readMisses                           0                       # DTB read misses
system.cpu.itb.writeHits                            0                       # DTB write hits
system.cpu.itb.writeMisses                          0                       # DTB write misses
system.cpu.itb.inserts                              0                       # Number of times an entry is inserted into the TLB
system.cpu.itb.flushTlb                             0                       # Number of times complete TLB was flushed
system.cpu.itb.flushTlbMva                          0                       # Number of times TLB was flushed by MVA
system.cpu.itb.flushTlbMvaAsid                      0                       # Number of times TLB was flushed by MVA & ASID
system.cpu.itb.flushTlbAsid                         0                       # Number of times TLB was flushed by ASID
system.cpu.itb.flushedEntries                       0                       # Number of entries that have been flushed from TLB
system.cpu.itb.alignFaults                          0                       # Number of TLB faults due to alignment restrictions
system.cpu.itb.prefetchFaults                       0                       # Number of TLB faults due to prefetch
system.cpu.itb.domainFaults                         0                       # Number of TLB faults due to domain restrictions
system.cpu.itb.permsFaults                          0                       # Number of TLB faults due to permissions restrictions
system.cpu.itb.readAccesses                         0                       # DTB read accesses
system.cpu.itb.writeAccesses                        0                       # DTB write accesses
system.cpu.itb.instAccesses                         0                       # ITB inst accesses
system.cpu.itb.hits                                 0                       # Total TLB (inst and data) hits
system.cpu.itb.misses                               0                       # Total TLB (inst and data) misses
system.cpu.itb.accesses                             0                       # Total TLB (inst and data) accesses
system.cpu.itb.stage2_mmu.stage2_tlb.instHits            0                       # ITB inst hits
system.cpu.itb.stage2_mmu.stage2_tlb.instMisses            0                       # ITB inst misses
system.cpu.itb.stage2_mmu.stage2_tlb.readHits            0                       # DTB read hits
system.cpu.itb.stage2_mmu.stage2_tlb.readMisses            0                       # DTB read misses
system.cpu.itb.stage2_mmu.stage2_tlb.writeHits            0                       # DTB write hits
system.cpu.itb.stage2_mmu.stage2_tlb.writeMisses            0                       # DTB write misses
system.cpu.itb.stage2_mmu.stage2_tlb.inserts            0                       # Number of times an entry is inserted into the TLB
system.cpu.itb.stage2_mmu.stage2_tlb.flushTlb            0                       # Number of times complete TLB was flushed
system.cpu.itb.stage2_mmu.stage2_tlb.flushTlbMva            0                       # Number of times TLB was flushed by MVA
system.cpu.itb.stage2_mmu.stage2_tlb.flushTlbMvaAsid            0                       # Number of times TLB was flushed by MVA & ASID
system.cpu.itb.stage2_mmu.stage2_tlb.flushTlbAsid            0                       # Number of times TLB was flushed by ASID
system.cpu.itb.stage2_mmu.stage2_tlb.flushedEntries            0                       # Number of entries that have been flushed from TLB
system.cpu.itb.stage2_mmu.stage2_tlb.alignFaults            0                       # Number of TLB faults due to alignment restrictions
system.cpu.itb.stage2_mmu.stage2_tlb.prefetchFaults            0                       # Number of TLB faults due to prefetch
system.cpu.itb.stage2_mmu.stage2_tlb.domainFaults            0                       # Number of TLB faults due to domain restrictions
system.cpu.itb.stage2_mmu.stage2_tlb.permsFaults            0                       # Number of TLB faults due to permissions restrictions
system.cpu.itb.stage2_mmu.stage2_tlb.readAccesses            0                       # DTB read accesses
system.cpu.itb.stage2_mmu.stage2_tlb.writeAccesses            0                       # DTB write accesses
system.cpu.itb.stage2_mmu.stage2_tlb.instAccesses            0                       # ITB inst accesses
system.cpu.itb.stage2_mmu.stage2_tlb.hits            0                       # Total TLB (inst and data) hits
system.cpu.itb.stage2_mmu.stage2_tlb.misses            0                       # Total TLB (inst and data) misses
system.cpu.itb.stage2_mmu.stage2_tlb.accesses            0                       # Total TLB (inst and data) accesses
system.cpu.itb.stage2_mmu.stage2_tlb.walker.walks            0                       # Table walker walks requested
system.cpu.itb.stage2_mmu.stage2_tlb.walker.requestOrigin_Requested::Data            0                       # Table walker requests started/completed, data/inst
system.cpu.itb.stage2_mmu.stage2_tlb.walker.requestOrigin_Requested::Inst            0                       # Table walker requests started/completed, data/inst
system.cpu.itb.stage2_mmu.stage2_tlb.walker.requestOrigin_Requested::total            0                       # Table walker requests started/completed, data/inst
system.cpu.itb.stage2_mmu.stage2_tlb.walker.requestOrigin_Completed::Data            0                       # Table walker requests started/completed, data/inst
system.cpu.itb.stage2_mmu.stage2_tlb.walker.requestOrigin_Completed::Inst            0                       # Table walker requests started/completed, data/inst
system.cpu.itb.stage2_mmu.stage2_tlb.walker.requestOrigin_Completed::total            0                       # Table walker requests started/completed, data/inst
system.cpu.itb.stage2_mmu.stage2_tlb.walker.requestOrigin::total            0                       # Table walker requests started/completed, data/inst
system.cpu.itb.stage2_mmu.stage2_tlb.walker.power_state.pwrStateResidencyTicks::UNDEFINED  57671633500                       # Cumulative time (in ticks) in various power states
system.cpu.itb.walker.walks                         0                       # Table walker walks requested
system.cpu.itb.walker.requestOrigin_Requested::Data            0                       # Table walker requests started/completed, data/inst
system.cpu.itb.walker.requestOrigin_Requested::Inst            0                       # Table walker requests started/completed, data/inst
system.cpu.itb.walker.requestOrigin_Requested::total            0                       # Table walker requests started/completed, data/inst
system.cpu.itb.walker.requestOrigin_Completed::Data            0                       # Table walker requests started/completed, data/inst
system.cpu.itb.walker.requestOrigin_Completed::Inst            0                       # Table walker requests started/completed, data/inst
system.cpu.itb.walker.requestOrigin_Completed::total            0                       # Table walker requests started/completed, data/inst
system.cpu.itb.walker.requestOrigin::total            0                       # Table walker requests started/completed, data/inst
system.cpu.itb.walker.power_state.pwrStateResidencyTicks::UNDEFINED  57671633500                       # Cumulative time (in ticks) in various power states
system.cpu.power_state.pwrStateResidencyTicks::ON  57671633500                       # Cumulative time (in ticks) in various power states
system.cpu.thread0.numInsts                 100000001                       # Number of Instructions committed
system.cpu.thread0.numOps                   109431274                       # Number of Ops committed
system.cpu.thread0.numMemRefs                       0                       # Number of Memory References
system.cpu_clk_domain.clock                       500                       # Clock period in ticks
system.cpu_voltage_domain.voltage                   1                       # Voltage in Volts
system.l2.demand_hits::.cpu.inst                  249                       # number of demand (read+write) hits
system.l2.demand_hits::.cpu.data                47907                       # number of demand (read+write) hits
system.l2.demand_hits::total                    48156                       # number of demand (read+write) hits
system.l2.overall_hits::.cpu.inst                 249                       # number of overall hits
system.l2.overall_hits::.cpu.data               47907                       # number of overall hits
system.l2.overall_hits::total                   48156                       # number of overall hits
system.l2.demand_misses::.cpu.inst                521                       # number of demand (read+write) misses
system.l2.demand_misses::.cpu.data              42488                       # number of demand (read+write) misses
system.l2.demand_misses::total                  43009                       # number of demand (read+write) misses
system.l2.overall_misses::.cpu.inst               521                       # number of overall misses
system.l2.overall_misses::.cpu.data             42488                       # number of overall misses
system.l2.overall_misses::total                 43009                       # number of overall misses
system.l2.demand_miss_latency::.cpu.inst     39619500                       # number of demand (read+write) miss cycles
system.l2.demand_miss_latency::.cpu.data   3564366500                       # number of demand (read+write) miss cycles
system.l2.demand_miss_latency::total       3603986000                       # number of demand (read+write) miss cycles
system.l2.overall_miss_latency::.cpu.inst     39619500                       # number of overall miss cycles
system.l2.overall_miss_latency::.cpu.data   3564366500                       # number of overall miss cycles
system.l2.overall_miss_latency::total      3603986000                       # number of overall miss cycles
system.l2.demand_accesses::.cpu.inst              770                       # number of demand (read+write) accesses
system.l2.demand_accesses::.cpu.data            90395                       # number of demand (read+write) accesses
system.l2.demand_accesses::total                91165                       # number of demand (read+write) accesses
system.l2.overall_accesses::.cpu.inst             770                       # number of overall (read+write) accesses
system.l2.overall_accesses::.cpu.data           90395                       # number of overall (read+write) accesses
system.l2.overall_accesses::total               91165                       # number of overall (read+write) accesses
system.l2.demand_miss_rate::.cpu.inst        0.676623                       # miss rate for demand accesses
system.l2.demand_miss_rate::.cpu.data        0.470026                       # miss rate for demand accesses
system.l2.demand_miss_rate::total            0.471771                       # miss rate for demand accesses
system.l2.overall_miss_rate::.cpu.inst       0.676623                       # miss rate for overall accesses
system.l2.overall_miss_rate::.cpu.data       0.470026                       # miss rate for overall accesses
system.l2.overall_miss_rate::total           0.471771                       # miss rate for overall accesses
system.l2.demand_avg_miss_latency::.cpu.inst 76045.105566                       # average overall miss latency
system.l2.demand_avg_miss_latency::.cpu.data 83891.133967                       # average overall miss latency
system.l2.demand_avg_miss_latency::total 83796.089191                       # average overall miss latency
system.l2.overall_avg_miss_latency::.cpu.inst 76045.105566                       # average overall miss latency
system.l2.overall_avg_miss_latency::.cpu.data 83891.133967                       # average overall miss latency
system.l2.overall_avg_miss_latency::total 83796.089191                       # average overall miss latency
system.l2.blocked_cycles::no_mshrs                  0                       # number of cycles access was blocked
system.l2.blocked_cycles::no_targets                0                       # number of cycles access was blocked
system.l2.blocked::no_mshrs                         0                       # number of cycles access was blocked
system.l2.blocked::no_targets                       0                       # number of cycles access was blocked
system.l2.avg_blocked_cycles::no_mshrs            nan                       # average number of cycles each access was blocked
system.l2.avg_blocked_cycles::no_targets          nan                       # average number of cycles each access was blocked
system.l2.writebacks::.writebacks               26037                       # number of writebacks
system.l2.writebacks::total                     26037                       # number of writebacks
system.l2.demand_mshr_hits::.cpu.inst               1                       # number of demand (read+write) MSHR hits
system.l2.demand_mshr_hits::.cpu.data               5                       # number of demand (read+write) MSHR hits
system.l2.demand_mshr_hits::total                   6                       # number of demand (read+write) MSHR hits
system.l2.overall_mshr_hits::.cpu.inst              1                       # number of overall MSHR hits
system.l2.overall_mshr_hits::.cpu.data              5                       # number of overall MSHR hits
system.l2.overall_mshr_hits::total                  6                       # number of overall MSHR hits
system.l2.demand_mshr_misses::.cpu.inst           520                       # number of demand (read+write) MSHR misses
system.l2.demand_mshr_misses::.cpu.data         42483                       # number of demand (read+write) MSHR misses
system.l2.demand_mshr_misses::total             43003                       # number of demand (read+write) MSHR misses
system.l2.overall_mshr_misses::.cpu.inst          520                       # number of overall MSHR misses
system.l2.overall_mshr_misses::.cpu.data        42483                       # number of overall MSHR misses
system.l2.overall_mshr_misses::total            43003                       # number of overall MSHR misses
system.l2.demand_mshr_miss_latency::.cpu.inst     34106000                       # number of demand (read+write) MSHR miss cycles
system.l2.demand_mshr_miss_latency::.cpu.data   3139211000                       # number of demand (read+write) MSHR miss cycles
system.l2.demand_mshr_miss_latency::total   3173317000                       # number of demand (read+write) MSHR miss cycles
system.l2.overall_mshr_miss_latency::.cpu.inst     34106000                       # number of overall MSHR miss cycles
system.l2.overall_mshr_miss_latency::.cpu.data   3139211000                       # number of overall MSHR miss cycles
system.l2.overall_mshr_miss_latency::total   3173317000                       # number of overall MSHR miss cycles
system.l2.demand_mshr_miss_rate::.cpu.inst     0.675325                       # mshr miss rate for demand accesses
system.l2.demand_mshr_miss_rate::.cpu.data     0.469971                       # mshr miss rate for demand accesses
system.l2.demand_mshr_miss_rate::total       0.471705                       # mshr miss rate for demand accesses
system.l2.overall_mshr_miss_rate::.cpu.inst     0.675325                       # mshr miss rate for overall accesses
system.l2.overall_mshr_miss_rate::.cpu.data     0.469971                       # mshr miss rate for overall accesses
system.l2.overall_mshr_miss_rate::total      0.471705                       # mshr miss rate for overall accesses
system.l2.demand_avg_mshr_miss_latency::.cpu.inst 65588.461538                       # average overall mshr miss latency
system.l2.demand_avg_mshr_miss_latency::.cpu.data 73893.345574                       # average overall mshr miss latency
system.l2.demand_avg_mshr_miss_latency::total 73792.921424                       # average overall mshr miss latency
system.l2.overall_avg_mshr_miss_latency::.cpu.inst 65588.461538                       # average overall mshr miss latency
system.l2.overall_avg_mshr_miss_latency::.cpu.data 73893.345574                       # average overall mshr miss latency
system.l2.overall_avg_mshr_miss_latency::total 73792.921424                       # average overall mshr miss latency
system.l2.replacements                          26622                       # number of replacements
system.l2.WritebackDirty_hits::.writebacks        72162                       # number of WritebackDirty hits
system.l2.WritebackDirty_hits::total            72162                       # number of WritebackDirty hits
system.l2.WritebackDirty_accesses::.writebacks        72162                       # number of WritebackDirty accesses(hits+misses)
system.l2.WritebackDirty_accesses::total        72162                       # number of WritebackDirty accesses(hits+misses)
system.l2.WritebackClean_hits::.writebacks          310                       # number of WritebackClean hits
system.l2.WritebackClean_hits::total              310                       # number of WritebackClean hits
system.l2.WritebackClean_accesses::.writebacks          310                       # number of WritebackClean accesses(hits+misses)
system.l2.WritebackClean_accesses::total          310                       # number of WritebackClean accesses(hits+misses)
system.l2.ReadExReq_hits::.cpu.data              8672                       # number of ReadExReq hits
system.l2.ReadExReq_hits::total                  8672                       # number of ReadExReq hits
system.l2.ReadExReq_misses::.cpu.data           38810                       # number of ReadExReq misses
system.l2.ReadExReq_misses::total               38810                       # number of ReadExReq misses
system.l2.ReadExReq_miss_latency::.cpu.data   3232235500                       # number of ReadExReq miss cycles
system.l2.ReadExReq_miss_latency::total    3232235500                       # number of ReadExReq miss cycles
system.l2.ReadExReq_accesses::.cpu.data         47482                       # number of ReadExReq accesses(hits+misses)
system.l2.ReadExReq_accesses::total             47482                       # number of ReadExReq accesses(hits+misses)
system.l2.ReadExReq_miss_rate::.cpu.data     0.817362                       # miss rate for ReadExReq accesses
system.l2.ReadExReq_miss_rate::total         0.817362                       # miss rate for ReadExReq accesses
system.l2.ReadExReq_avg_miss_latency::.cpu.data 83283.573821                       # average ReadExReq miss latency
system.l2.ReadExReq_avg_miss_latency::total 83283.573821                       # average ReadExReq miss latency
system.l2.ReadExReq_mshr_misses::.cpu.data        38810                       # number of ReadExReq MSHR misses
system.l2.ReadExReq_mshr_misses::total          38810                       # number of ReadExReq MSHR misses
system.l2.ReadExReq_mshr_miss_latency::.cpu.data   2844135500                       # number of ReadExReq MSHR miss cycles
system.l2.ReadExReq_mshr_miss_latency::total   2844135500                       # number of ReadExReq MSHR miss cycles
system.l2.ReadExReq_mshr_miss_rate::.cpu.data     0.817362                       # mshr miss rate for ReadExReq accesses
system.l2.ReadExReq_mshr_miss_rate::total     0.817362                       # mshr miss rate for ReadExReq accesses
system.l2.ReadExReq_avg_mshr_miss_latency::.cpu.data 73283.573821                       # average ReadExReq mshr miss latency
system.l2.ReadExReq_avg_mshr_miss_latency::total 73283.573821                       # average ReadExReq mshr miss latency
system.l2.ReadCleanReq_hits::.cpu.inst            249                       # number of ReadCleanReq hits
system.l2.ReadCleanReq_hits::total                249                       # number of ReadCleanReq hits
system.l2.ReadCleanReq_misses::.cpu.inst          521                       # number of ReadCleanReq misses
system.l2.ReadCleanReq_misses::total              521                       # number of ReadCleanReq misses
system.l2.ReadCleanReq_miss_latency::.cpu.inst     39619500                       # number of ReadCleanReq miss cycles
system.l2.ReadCleanReq_miss_latency::total     39619500                       # number of ReadCleanReq miss cycles
system.l2.ReadCleanReq_accesses::.cpu.inst          770                       # number of ReadCleanReq accesses(hits+misses)
system.l2.ReadCleanReq_accesses::total            770                       # number of ReadCleanReq accesses(hits+misses)
system.l2.ReadCleanReq_miss_rate::.cpu.inst     0.676623                       # miss rate for ReadCleanReq accesses
system.l2.ReadCleanReq_miss_rate::total      0.676623                       # miss rate for ReadCleanReq accesses
system.l2.ReadCleanReq_avg_miss_latency::.cpu.inst 76045.105566                       # average ReadCleanReq miss latency
system.l2.ReadCleanReq_avg_miss_latency::total 76045.105566                       # average ReadCleanReq miss latency
system.l2.ReadCleanReq_mshr_hits::.cpu.inst            1                       # number of ReadCleanReq MSHR hits
system.l2.ReadCleanReq_mshr_hits::total             1                       # number of ReadCleanReq MSHR hits
system.l2.ReadCleanReq_mshr_misses::.cpu.inst          520                       # number of ReadCleanReq MSHR misses
system.l2.ReadCleanReq_mshr_misses::total          520                       # number of ReadCleanReq MSHR misses
system.l2.ReadCleanReq_mshr_miss_latency::.cpu.inst     34106000                       # number of ReadCleanReq MSHR miss cycles
system.l2.ReadCleanReq_mshr_miss_latency::total     34106000                       # number of ReadCleanReq MSHR miss cycles
system.l2.ReadCleanReq_mshr_miss_rate::.cpu.inst     0.675325                       # mshr miss rate for ReadCleanReq accesses
system.l2.ReadCleanReq_mshr_miss_rate::total     0.675325                       # mshr miss rate for ReadCleanReq accesses
system.l2.ReadCleanReq_avg_mshr_miss_latency::.cpu.inst 65588.461538                       # average ReadCleanReq mshr miss latency
system.l2.ReadCleanReq_avg_mshr_miss_latency::total 65588.461538                       # average ReadCleanReq mshr miss latency
system.l2.ReadSharedReq_hits::.cpu.data         39235                       # number of ReadSharedReq hits
system.l2.ReadSharedReq_hits::total             39235                       # number of ReadSharedReq hits
system.l2.ReadSharedReq_misses::.cpu.data         3678                       # number of ReadSharedReq misses
system.l2.ReadSharedReq_misses::total            3678                       # number of ReadSharedReq misses
system.l2.ReadSharedReq_miss_latency::.cpu.data    332131000                       # number of ReadSharedReq miss cycles
system.l2.ReadSharedReq_miss_latency::total    332131000                       # number of ReadSharedReq miss cycles
system.l2.ReadSharedReq_accesses::.cpu.data        42913                       # number of ReadSharedReq accesses(hits+misses)
system.l2.ReadSharedReq_accesses::total         42913                       # number of ReadSharedReq accesses(hits+misses)
system.l2.ReadSharedReq_miss_rate::.cpu.data     0.085708                       # miss rate for ReadSharedReq accesses
system.l2.ReadSharedReq_miss_rate::total     0.085708                       # miss rate for ReadSharedReq accesses
system.l2.ReadSharedReq_avg_miss_latency::.cpu.data 90302.066340                       # average ReadSharedReq miss latency
system.l2.ReadSharedReq_avg_miss_latency::total 90302.066340                       # average ReadSharedReq miss latency
system.l2.ReadSharedReq_mshr_hits::.cpu.data            5                       # number of ReadSharedReq MSHR hits
system.l2.ReadSharedReq_mshr_hits::total            5                       # number of ReadSharedReq MSHR hits
system.l2.ReadSharedReq_mshr_misses::.cpu.data         3673                       # number of ReadSharedReq MSHR misses
system.l2.ReadSharedReq_mshr_misses::total         3673                       # number of ReadSharedReq MSHR misses
system.l2.ReadSharedReq_mshr_miss_latency::.cpu.data    295075500                       # number of ReadSharedReq MSHR miss cycles
system.l2.ReadSharedReq_mshr_miss_latency::total    295075500                       # number of ReadSharedReq MSHR miss cycles
system.l2.ReadSharedReq_mshr_miss_rate::.cpu.data     0.085592                       # mshr miss rate for ReadSharedReq accesses
system.l2.ReadSharedReq_mshr_miss_rate::total     0.085592                       # mshr miss rate for ReadSharedReq accesses
system.l2.ReadSharedReq_avg_mshr_miss_latency::.cpu.data 80336.373537                       # average ReadSharedReq mshr miss latency
system.l2.ReadSharedReq_avg_mshr_miss_latency::total 80336.373537                       # average ReadSharedReq mshr miss latency
system.l2.power_state.pwrStateResidencyTicks::UNDEFINED  57671633500                       # Cumulative time (in ticks) in various power states
system.l2.tags.tagsinuse                 15559.818298                       # Cycle average of tags in use
system.l2.tags.total_refs                      179271                       # Total number of references to valid blocks.
system.l2.tags.sampled_refs                     43006                       # Sample count of references to valid blocks.
system.l2.tags.avg_refs                      4.168511                       # Average number of references to valid blocks.
system.l2.tags.warmup_cycle                     77000                       # Cycle when the warmup percentage was hit.
system.l2.tags.occ_blocks::.writebacks       1.454409                       # Average occupied blocks per requestor
system.l2.tags.occ_blocks::.cpu.inst        68.674445                       # Average occupied blocks per requestor
system.l2.tags.occ_blocks::.cpu.data     15489.689443                       # Average occupied blocks per requestor
system.l2.tags.occ_percent::.writebacks      0.000089                       # Average percentage of cache occupancy
system.l2.tags.occ_percent::.cpu.inst        0.004192                       # Average percentage of cache occupancy
system.l2.tags.occ_percent::.cpu.data        0.945416                       # Average percentage of cache occupancy
system.l2.tags.occ_percent::total            0.949696                       # Average percentage of cache occupancy
system.l2.tags.occ_task_id_blocks::1024         16384                       # Occupied blocks per task id
system.l2.tags.age_task_id_blocks_1024::0            3                       # Occupied blocks per task id
system.l2.tags.age_task_id_blocks_1024::1           35                       # Occupied blocks per task id
system.l2.tags.age_task_id_blocks_1024::2          540                       # Occupied blocks per task id
system.l2.tags.age_task_id_blocks_1024::3         4349                       # Occupied blocks per task id
system.l2.tags.age_task_id_blocks_1024::4        11457                       # Occupied blocks per task id
system.l2.tags.occ_task_id_percent::1024            1                       # Percentage of cache occupancy per task id
system.l2.tags.tag_accesses                   5779870                       # Number of tag accesses
system.l2.tags.data_accesses                  5779870                       # Number of data accesses
system.l2.tags.power_state.pwrStateResidencyTicks::UNDEFINED  57671633500                       # Cumulative time (in ticks) in various power states
system.mem_ctrls.avgPriority_.writebacks::samples     26037.00                       # Average QoS priority value for accepted requests
system.mem_ctrls.avgPriority_.cpu.inst::samples       520.00                       # Average QoS priority value for accepted requests
system.mem_ctrls.avgPriority_.cpu.data::samples     42479.00                       # Average QoS priority value for accepted requests
system.mem_ctrls.priorityMinLatency      0.000000018750                       # per QoS priority minimum request to response latency (s)
system.mem_ctrls.priorityMaxLatency      0.000976630500                       # per QoS priority maximum request to response latency (s)
system.mem_ctrls.numReadWriteTurnArounds         1448                       # Number of turnarounds from READ to WRITE
system.mem_ctrls.numWriteReadTurnArounds         1448                       # Number of turnarounds from WRITE to READ
system.mem_ctrls.numStayReadState              126626                       # Number of times bus staying in READ state
system.mem_ctrls.numStayWriteState              24579                       # Number of times bus staying in WRITE state
system.mem_ctrls.readReqs                       43003                       # Number of read requests accepted
system.mem_ctrls.writeReqs                      26037                       # Number of write requests accepted
system.mem_ctrls.readBursts                     43003                       # Number of controller read bursts, including those serviced by the write queue
system.mem_ctrls.writeBursts                    26037                       # Number of controller write bursts, including those merged in the write queue
system.mem_ctrls.servicedByWrQ                      4                       # Number of controller read bursts serviced by the write queue
system.mem_ctrls.mergedWrBursts                     0                       # Number of controller write bursts merged with an existing one
system.mem_ctrls.neitherReadNorWriteReqs            0                       # Number of requests that are neither read nor write
system.mem_ctrls.avgRdQLen                       1.04                       # Average read queue length when enqueuing
system.mem_ctrls.avgWrQLen                      21.98                       # Average write queue length when enqueuing
system.mem_ctrls.numRdRetry                         0                       # Number of times read queue was full causing retry
system.mem_ctrls.numWrRetry                         0                       # Number of times write queue was full causing retry
system.mem_ctrls.readPktSize::0                     0                       # Read request sizes (log2)
system.mem_ctrls.readPktSize::1                     0                       # Read request sizes (log2)
system.mem_ctrls.readPktSize::2                     0                       # Read request sizes (log2)
system.mem_ctrls.readPktSize::3                     0                       # Read request sizes (log2)
[...]
system.mem_ctrls.dram.bw_write::.writebacks     28894066                       # Write bandwidth from this memory (bytes/s)
system.mem_ctrls.dram.bw_write::total        28894066                       # Write bandwidth from this memory (bytes/s)
system.mem_ctrls.dram.bw_total::.writebacks     28894066                       # Total bandwidth to/from this memory (bytes/s)
system.mem_ctrls.dram.bw_total::.cpu.inst       577060                       # Total bandwidth to/from this memory (bytes/s)
system.mem_ctrls.dram.bw_total::.cpu.data     47144702                       # Total bandwidth to/from this memory (bytes/s)
system.mem_ctrls.dram.bw_total::total        76615829                       # Total bandwidth to/from this memory (bytes/s)
system.mem_ctrls.dram.readBursts                42999                       # Number of DRAM read bursts
system.mem_ctrls.dram.writeBursts               26015                       # Number of DRAM write bursts
system.mem_ctrls.dram.perBankRdBursts::0         2742                       # Per bank write bursts
system.mem_ctrls.dram.perBankRdBursts::1         2665                       # Per bank write bursts
system.mem_ctrls.dram.perBankRdBursts::2         2690                       # Per bank write bursts
system.mem_ctrls.dram.perBankRdBursts::3         2776                       # Per bank write bursts
system.mem_ctrls.dram.perBankRdBursts::4         2652                       # Per bank write bursts
system.mem_ctrls.dram.perBankRdBursts::5         2542                       # Per bank write bursts
system.mem_ctrls.dram.perBankRdBursts::6         2647                       # Per bank write bursts
system.mem_ctrls.dram.perBankRdBursts::7         2708                       # Per bank write bursts
system.mem_ctrls.dram.perBankRdBursts::8         2647                       # Per bank write bursts
system.mem_ctrls.dram.perBankRdBursts::9         2696                       # Per bank write bursts
system.mem_ctrls.dram.perBankRdBursts::10         2721                       # Per bank write bursts
system.mem_ctrls.dram.perBankRdBursts::11         2702                       # Per bank write bursts
system.mem_ctrls.dram.perBankRdBursts::12         2696                       # Per bank write bursts
system.mem_ctrls.dram.perBankRdBursts::13         2702                       # Per bank write bursts
system.mem_ctrls.dram.perBankRdBursts::14         2708                       # Per bank write bursts
system.mem_ctrls.dram.perBankRdBursts::15         2705                       # Per bank write bursts
system.mem_ctrls.dram.perBankWrBursts::0         1617                       # Per bank write bursts
system.mem_ctrls.dram.perBankWrBursts::1         1581                       # Per bank write bursts
system.mem_ctrls.dram.perBankWrBursts::2         1607                       # Per bank write bursts
system.mem_ctrls.dram.perBankWrBursts::3         1623                       # Per bank write bursts
system.mem_ctrls.dram.perBankWrBursts::4         1574                       # Per bank write bursts
system.mem_ctrls.dram.perBankWrBursts::5         1588                       # Per bank write bursts
system.mem_ctrls.dram.perBankWrBursts::6         1678                       # Per bank write bursts
system.mem_ctrls.dram.perBankWrBursts::7         1649                       # Per bank write bursts
system.mem_ctrls.dram.perBankWrBursts::8         1652                       # Per bank write bursts
system.mem_ctrls.dram.perBankWrBursts::9         1649                       # Per bank write bursts
system.mem_ctrls.dram.perBankWrBursts::10         1627                       # Per bank write bursts
system.mem_ctrls.dram.perBankWrBursts::11         1648                       # Per bank write bursts
system.mem_ctrls.dram.perBankWrBursts::12         1640                       # Per bank write bursts
system.mem_ctrls.dram.perBankWrBursts::13         1579                       # Per bank write bursts
system.mem_ctrls.dram.perBankWrBursts::14         1631                       # Per bank write bursts
system.mem_ctrls.dram.perBankWrBursts::15         1672                       # Per bank write bursts
system.mem_ctrls.dram.totQLat               601256750                       # Total ticks spent queuing
system.mem_ctrls.dram.totBusLat             214995000                       # Total ticks spent in databus transfers
system.mem_ctrls.dram.totMemAccLat         1407488000                       # Total ticks spent from burst creation until serviced by the DRAM
system.mem_ctrls.dram.avgQLat                13983.04                       # Average queueing delay per DRAM burst
system.mem_ctrls.dram.avgBusLat               5000.00                       # Average bus latency per DRAM burst
system.mem_ctrls.dram.avgMemAccLat           32733.04                       # Average memory access latency per DRAM burst
system.mem_ctrls.dram.readRowHits               29640                       # Number of row buffer hits during reads
system.mem_ctrls.dram.writeRowHits              17988                       # Number of row buffer hits during writes
system.mem_ctrls.dram.readRowHitRate            68.93                       # Row buffer hit rate for reads
system.mem_ctrls.dram.writeRowHitRate           69.14                       # Row buffer hit rate for writes
system.mem_ctrls.dram.bytesPerActivate::samples        21385                       # Bytes accessed per row activation
system.mem_ctrls.dram.bytesPerActivate::mean   206.535796                       # Bytes accessed per row activation
system.mem_ctrls.dram.bytesPerActivate::gmean   148.699943                       # Bytes accessed per row activation
system.mem_ctrls.dram.bytesPerActivate::stdev   198.040348                       # Bytes accessed per row activation
system.mem_ctrls.dram.bytesPerActivate::0-127         7771     36.34%     36.34% # Bytes accessed per row activation
system.mem_ctrls.dram.bytesPerActivate::128-255         8839     41.33%     77.67% # Bytes accessed per row activation
system.mem_ctrls.dram.bytesPerActivate::256-383         1776      8.30%     85.98% # Bytes accessed per row activation
system.mem_ctrls.dram.bytesPerActivate::384-511         1002      4.69%     90.66% # Bytes accessed per row activation
system.mem_ctrls.dram.bytesPerActivate::512-639          690      3.23%     93.89% # Bytes accessed per row activation
system.mem_ctrls.dram.bytesPerActivate::640-767          443      2.07%     95.96% # Bytes accessed per row activation
system.mem_ctrls.dram.bytesPerActivate::768-895          230      1.08%     97.04% # Bytes accessed per row activation
system.mem_ctrls.dram.bytesPerActivate::896-1023          453      2.12%     99.15% # Bytes accessed per row activation
system.mem_ctrls.dram.bytesPerActivate::1024-1151          181      0.85%    100.00% # Bytes accessed per row activation
system.mem_ctrls.dram.bytesPerActivate::total        21385                       # Bytes accessed per row activation
system.mem_ctrls.dram.bytesRead               2751936                       # Total number of bytes read from DRAM
system.mem_ctrls.dram.bytesWritten            1664960                       # Total number of bytes written to DRAM
system.mem_ctrls.dram.avgRdBW               47.717324                       # Average DRAM read bandwidth in MiBytes/s
system.mem_ctrls.dram.avgWrBW               28.869652                       # Average DRAM write bandwidth in MiBytes/s
system.mem_ctrls.dram.peakBW                 12800.00                       # Theoretical peak bandwidth in MiByte/s
system.mem_ctrls.dram.busUtil                    0.60                       # Data bus utilization in percentage
system.mem_ctrls.dram.busUtilRead                0.37                       # Data bus utilization in percentage for reads
system.mem_ctrls.dram.busUtilWrite               0.23                       # Data bus utilization in percentage for writes
system.mem_ctrls.dram.pageHitRate               69.01                       # Row buffer hit rate, read and write combined
system.mem_ctrls.dram.power_state.pwrStateResidencyTicks::UNDEFINED  57671633500                       # Cumulative time (in ticks) in various power states
system.mem_ctrls.dram.rank0.actEnergy        76962060                       # Energy for activate commands per rank (pJ)
system.mem_ctrls.dram.rank0.preEnergy        40902510                       # Energy for precharge commands per rank (pJ)
system.mem_ctrls.dram.rank0.readEnergy      152953080                       # Energy for read commands per rank (pJ)
system.mem_ctrls.dram.rank0.writeEnergy      67426740                       # Energy for write commands per rank (pJ)
system.mem_ctrls.dram.rank0.refreshEnergy 4552023840.000001                       # Energy for refresh commands per rank (pJ)
system.mem_ctrls.dram.rank0.actBackEnergy  14966812620                       # Energy for active background per rank (pJ)
system.mem_ctrls.dram.rank0.preBackEnergy   9542275680                       # Energy for precharge background per rank (pJ)
system.mem_ctrls.dram.rank0.actPowerDownEnergy            0                       # Energy for active power-down per rank (pJ)
system.mem_ctrls.dram.rank0.prePowerDownEnergy            0                       # Energy for precharge power-down per rank (pJ)
system.mem_ctrls.dram.rank0.selfRefreshEnergy            0                       # Energy for self refresh per rank (pJ)
system.mem_ctrls.dram.rank0.totalEnergy   29399356530                       # Total energy per rank (pJ)
system.mem_ctrls.dram.rank0.averagePower   509.771525                       # Core power per rank (mW)
system.mem_ctrls.dram.rank0.totalIdleTime            0                       # Total Idle time Per DRAM Rank
system.mem_ctrls.dram.rank0.pwrStateTime::IDLE  24675637250                       # Time in different power states
system.mem_ctrls.dram.rank0.pwrStateTime::REF   1925560000                       # Time in different power states
system.mem_ctrls.dram.rank0.pwrStateTime::SREF            0                       # Time in different power states
system.mem_ctrls.dram.rank0.pwrStateTime::PRE_PDN            0                       # Time in different power states
system.mem_ctrls.dram.rank0.pwrStateTime::ACT  31070436250                       # Time in different power states
system.mem_ctrls.dram.rank0.pwrStateTime::ACT_PDN            0                       # Time in different power states
system.mem_ctrls.dram.rank1.actEnergy        75733980                       # Energy for activate commands per rank (pJ)
system.mem_ctrls.dram.rank1.preEnergy        40253565                       # Energy for precharge commands per rank (pJ)
system.mem_ctrls.dram.rank1.readEnergy      154059780                       # Energy for read commands per rank (pJ)
system.mem_ctrls.dram.rank1.writeEnergy      68371560                       # Energy for write commands per rank (pJ)
system.mem_ctrls.dram.rank1.refreshEnergy 4552023840.000001                       # Energy for refresh commands per rank (pJ)
system.mem_ctrls.dram.rank1.actBackEnergy  14841093990                       # Energy for active background per rank (pJ)
system.mem_ctrls.dram.rank1.preBackEnergy   9648144000                       # Energy for precharge background per rank (pJ)
system.mem_ctrls.dram.rank1.actPowerDownEnergy            0                       # Energy for active power-down per rank (pJ)
system.mem_ctrls.dram.rank1.prePowerDownEnergy            0                       # Energy for precharge power-down per rank (pJ)
system.mem_ctrls.dram.rank1.selfRefreshEnergy            0                       # Energy for self refresh per rank (pJ)
system.mem_ctrls.dram.rank1.totalEnergy   29379680715                       # Total energy per rank (pJ)
system.mem_ctrls.dram.rank1.averagePower   509.430355                       # Core power per rank (mW)
system.mem_ctrls.dram.rank1.totalIdleTime            0                       # Total Idle time Per DRAM Rank
system.mem_ctrls.dram.rank1.pwrStateTime::IDLE  24951995000                       # Time in different power states
system.mem_ctrls.dram.rank1.pwrStateTime::REF   1925560000                       # Time in different power states
system.mem_ctrls.dram.rank1.pwrStateTime::SREF            0                       # Time in different power states
system.mem_ctrls.dram.rank1.pwrStateTime::PRE_PDN            0                       # Time in different power states
system.mem_ctrls.dram.rank1.pwrStateTime::ACT  30794078500                       # Time in different power states
system.mem_ctrls.dram.rank1.pwrStateTime::ACT_PDN            0                       # Time in different power states
system.mem_ctrls.power_state.pwrStateResidencyTicks::UNDEFINED  57671633500                       # Cumulative time (in ticks) in various power states
system.membus.trans_dist::ReadResp               4193                       # Transaction distribution
system.membus.trans_dist::WritebackDirty        26037                       # Transaction distribution
system.membus.trans_dist::CleanEvict              131                       # Transaction distribution
system.membus.trans_dist::ReadExReq             38810                       # Transaction distribution
system.membus.trans_dist::ReadExResp            38810                       # Transaction distribution
system.membus.trans_dist::ReadSharedReq          4193                       # Transaction distribution
system.membus.pkt_count_system.l2.mem_side_port::system.mem_ctrls.port       112174                       # Packet count per connected requestor and responder (bytes)
system.membus.pkt_count::total                 112174                       # Packet count per connected requestor and responder (bytes)
system.membus.pkt_size_system.l2.mem_side_port::system.mem_ctrls.port      4418560                       # Cumulative packet size per connected requestor and responder (bytes)
system.membus.pkt_size::total                 4418560                       # Cumulative packet size per connected requestor and responder (bytes)
system.membus.snoops                                0                       # Total snoops (count)
system.membus.snoopTraffic                          0                       # Total snoop traffic (bytes)
system.membus.snoop_fanout::samples             43003                       # Request fanout histogram
system.membus.snoop_fanout::mean                    0                       # Request fanout histogram
system.membus.snoop_fanout::stdev                   0                       # Request fanout histogram
system.membus.snoop_fanout::underflows              0      0.00%      0.00% # Request fanout histogram
system.membus.snoop_fanout::0                   43003    100.00%    100.00% # Request fanout histogram
system.membus.snoop_fanout::1                       0      0.00%    100.00% # Request fanout histogram
system.membus.snoop_fanout::overflows               0      0.00%    100.00% # Request fanout histogram
system.membus.snoop_fanout::min_value               0                       # Request fanout histogram
system.membus.snoop_fanout::max_value               0                       # Request fanout histogram
system.membus.snoop_fanout::total               43003                       # Request fanout histogram
system.membus.power_state.pwrStateResidencyTicks::UNDEFINED  57671633500                       # Cumulative time (in ticks) in various power states
system.membus.reqLayer0.occupancy           183622500                       # Layer occupancy (ticks)
system.membus.reqLayer0.utilization               0.3                       # Layer utilization (%)
system.membus.respLayer1.occupancy          228926250                       # Layer occupancy (ticks)
system.membus.respLayer1.utilization              0.4                       # Layer utilization (%)
system.tol2bus.trans_dist::ReadResp             43683                       # Transaction distribution
system.tol2bus.trans_dist::WritebackDirty        98199                       # Transaction distribution
system.tol2bus.trans_dist::WritebackClean          314                       # Transaction distribution
system.tol2bus.trans_dist::CleanEvict           18306                       # Transaction distribution
system.tol2bus.trans_dist::ReadExReq            47482                       # Transaction distribution
system.tol2bus.trans_dist::ReadExResp           47482                       # Transaction distribution
system.tol2bus.trans_dist::ReadCleanReq           770                       # Transaction distribution
system.tol2bus.trans_dist::ReadSharedReq        42913                       # Transaction distribution
system.tol2bus.pkt_count_system.cpu.icache.mem_side_port::system.l2.cpu_side_port         1854                       # Packet count per connected requestor and responder (bytes)
system.tol2bus.pkt_count_system.cpu.dcache.mem_side_port::system.l2.cpu_side_port       270673                       # Packet count per connected requestor and responder (bytes)
system.tol2bus.pkt_count::total                272527                       # Packet count per connected requestor and responder (bytes)
system.tol2bus.pkt_size_system.cpu.icache.mem_side_port::system.l2.cpu_side_port        69376                       # Cumulative packet size per connected requestor and responder (bytes)
system.tol2bus.pkt_size_system.cpu.dcache.mem_side_port::system.l2.cpu_side_port     10403648                       # Cumulative packet size per connected requestor and responder (bytes)
system.tol2bus.pkt_size::total               10473024                       # Cumulative packet size per connected requestor and responder (bytes)
system.tol2bus.snoops                           26622                       # Total snoops (count)
system.tol2bus.snoopTraffic                   1666368                       # Total snoop traffic (bytes)
system.tol2bus.snoop_fanout::samples           117787                       # Request fanout histogram
system.tol2bus.snoop_fanout::mean            0.021590                       # Request fanout histogram
system.tol2bus.snoop_fanout::stdev           0.145341                       # Request fanout histogram
system.tol2bus.snoop_fanout::underflows             0      0.00%      0.00% # Request fanout histogram
system.tol2bus.snoop_fanout::0                 115244     97.84%     97.84% # Request fanout histogram
system.tol2bus.snoop_fanout::1                   2543      2.16%    100.00% # Request fanout histogram
system.tol2bus.snoop_fanout::2                      0      0.00%    100.00% # Request fanout histogram
system.tol2bus.snoop_fanout::overflows              0      0.00%    100.00% # Request fanout histogram
system.tol2bus.snoop_fanout::min_value              0                       # Request fanout histogram
system.tol2bus.snoop_fanout::max_value              1                       # Request fanout histogram
system.tol2bus.snoop_fanout::total             117787                       # Request fanout histogram
system.tol2bus.power_state.pwrStateResidencyTicks::UNDEFINED  57671633500                       # Cumulative time (in ticks) in various power states
system.tol2bus.reqLayer0.occupancy          163157000                       # Layer occupancy (ticks)
system.tol2bus.reqLayer0.utilization              0.3                       # Layer utilization (%)
system.tol2bus.respLayer0.occupancy           1155499                       # Layer occupancy (ticks)
system.tol2bus.respLayer0.utilization             0.0                       # Layer utilization (%)
system.tol2bus.respLayer1.occupancy         135594995                       # Layer occupancy (ticks)
system.tol2bus.respLayer1.utilization             0.2                       # Layer utilization (%)
system.voltage_domain.voltage                       1                       # Voltage in Volts

---------- End Simulation Statistics   ----------
