
---------- Begin Simulation Statistics ----------
final_tick                                85132797000                       # Number of ticks from beginning of simulation (restored from checkpoints and never reset)
host_inst_rate                                 178233                       # Simulator instruction rate (inst/s)
host_mem_usage                                 672012                       # Number of bytes of host memory used
host_op_rate                                   178583                       # Simulator op (including micro ops) rate (op/s)
host_seconds                                   561.06                       # Real time elapsed on the host
host_tick_rate                              151734683                       # Simulator tick rate (ticks/s)
sim_freq                                 1000000000000                       # Frequency of simulated ticks
sim_insts                                   100000001                       # Number of instructions simulated
sim_ops                                     100196356                       # Number of ops (including micro ops) simulated
sim_seconds                                  0.085133                       # Number of seconds simulated
sim_ticks                                 85132797000                       # Number of ticks simulated
system.cpu.committedInsts                   100000001                       # Number of instructions committed
system.cpu.committedOps                     100196356                       # Number of ops (including micro ops) committed
system.cpu.cpi                               1.702656                       # CPI: cycles per instruction
system.cpu.discardedOps                        189640                       # Number of ops (including micro ops) which were discarded before commit
system.cpu.idleCycles                        37163347                       # Total number of cycles that the object has spent stopped
system.cpu.ipc                               0.587318                       # IPC: instructions per cycle
system.cpu.numCycles                        170265594                       # number of cpu cycles simulated
system.cpu.numFetchSuspends                         0                       # Number of times Execute suspended instruction fetching
system.cpu.numWorkItemsCompleted                    0                       # number of work items this cpu completed
system.cpu.numWorkItemsStarted                      0                       # number of work items this cpu started
system.cpu.op_class_0::No_OpClass                   0      0.00%      0.00% # Class of committed instruction
system.cpu.op_class_0::IntAlu                46526863     46.44%     46.44% # Class of committed instruction
system.cpu.op_class_0::IntMult                  20723      0.02%     46.46% # Class of committed instruction
system.cpu.op_class_0::IntDiv                       0      0.00%     46.46% # Class of committed instruction
system.cpu.op_class_0::FloatAdd                     0      0.00%     46.46% # Class of committed instruction
system.cpu.op_class_0::FloatCmp                     0      0.00%     46.46% # Class of committed instruction
system.cpu.op_class_0::FloatCvt                     0      0.00%     46.46% # Class of committed instruction
system.cpu.op_class_0::FloatMult                    0      0.00%     46.46% # Class of committed instruction
system.cpu.op_class_0::FloatMultAcc                 0      0.00%     46.46% # Class of committed instruction
system.cpu.op_class_0::FloatDiv                     0      0.00%     46.46% # Class of committed instruction
system.cpu.op_class_0::FloatMisc                    0      0.00%     46.46% # Class of committed instruction
system.cpu.op_class_0::FloatSqrt                    0      0.00%     46.46% # Class of committed instruction
system.cpu.op_class_0::SimdAdd                      0      0.00%     46.46% # Class of committed instruction
system.cpu.op_class_0::SimdAddAcc                   0      0.00%     46.46% # Class of committed instruction
system.cpu.op_class_0::SimdAlu                      0      0.00%     46.46% # Class of committed instruction
system.cpu.op_class_0::SimdCmp                      0      0.00%     46.46% # Class of committed instruction
system.cpu.op_class_0::SimdCvt                      0      0.00%     46.46% # Class of committed instruction
system.cpu.op_class_0::SimdMisc                     0      0.00%     46.46% # Class of committed instruction
system.cpu.op_class_0::SimdMult                     0      0.00%     46.46% # Class of committed instruction
system.cpu.op_class_0::SimdMultAcc                  0      0.00%     46.46% # Class of committed instruction
system.cpu.op_class_0::SimdShift                    0      0.00%     46.46% # Class of committed instruction
system.cpu.op_class_0::SimdShiftAcc                 0      0.00%     46.46% # Class of committed instruction
system.cpu.op_class_0::SimdDiv                      0      0.00%     46.46% # Class of committed instruction
system.cpu.op_class_0::SimdSqrt                     0      0.00%     46.46% # Class of committed instruction
system.cpu.op_class_0::SimdFloatAdd                 0      0.00%     46.46% # Class of committed instruction
system.cpu.op_class_0::SimdFloatAlu                 0      0.00%     46.46% # Class of committed instruction
system.cpu.op_class_0::SimdFloatCmp                 0      0.00%     46.46% # Class of committed instruction
system.cpu.op_class_0::SimdFloatCvt                 0      0.00%     46.46% # Class of committed instruction
system.cpu.op_class_0::SimdFloatDiv                 0      0.00%     46.46% # Class of committed instruction
system.cpu.op_class_0::SimdFloatMisc               18      0.00%     46.46% # Class of committed instruction
system.cpu.op_class_0::SimdFloatMult                0      0.00%     46.46% # Class of committed instruction
system.cpu.op_class_0::SimdFloatMultAcc             0      0.00%     46.46% # Class of committed instruction
system.cpu.op_class_0::SimdFloatSqrt                0      0.00%     46.46% # Class of committed instruction
system.cpu.op_class_0::SimdReduceAdd                0      0.00%     46.46% # Class of committed instruction
system.cpu.op_class_0::SimdReduceAlu                0      0.00%     46.46% # Class of committed instruction
system.cpu.op_class_0::SimdReduceCmp                0      0.00%     46.46% # Class of committed instruction
system.cpu.op_class_0::SimdFloatReduceAdd            0      0.00%     46.46% # Class of committed instruction
system.cpu.op_class_0::SimdFloatReduceCmp            0      0.00%     46.46% # Class of committed instruction
system.cpu.op_class_0::SimdAes                      0      0.00%     46.46% # Class of committed instruction
system.cpu.op_class_0::SimdAesMix                   0      0.00%     46.46% # Class of committed instruction
system.cpu.op_class_0::SimdSha1Hash                 0      0.00%     46.46% # Class of committed instruction
system.cpu.op_class_0::SimdSha1Hash2                0      0.00%     46.46% # Class of committed instruction
system.cpu.op_class_0::SimdSha256Hash               0      0.00%     46.46% # Class of committed instruction
system.cpu.op_class_0::SimdSha256Hash2              0      0.00%     46.46% # Class of committed instruction
system.cpu.op_class_0::SimdShaSigma2                0      0.00%     46.46% # Class of committed instruction
system.cpu.op_class_0::SimdShaSigma3                0      0.00%     46.46% # Class of committed instruction
system.cpu.op_class_0::SimdPredAlu                  0      0.00%     46.46% # Class of committed instruction
system.cpu.op_class_0::MemRead               42690537     42.61%     89.06% # Class of committed instruction
system.cpu.op_class_0::MemWrite              10958215     10.94%    100.00% # Class of committed instruction
system.cpu.op_class_0::FloatMemRead                 0      0.00%    100.00% # Class of committed instruction
system.cpu.op_class_0::FloatMemWrite                0      0.00%    100.00% # Class of committed instruction
system.cpu.op_class_0::IprAccess                    0      0.00%    100.00% # Class of committed instruction
system.cpu.op_class_0::InstPrefetch                 0      0.00%    100.00% # Class of committed instruction
system.cpu.op_class_0::total                100196356                       # Class of committed instruction
system.cpu.tickCycles                       133102247                       # Number of cycles that the object actually ticked
system.cpu.workload.numSyscalls                    85                       # Number of system calls
system.membus.snoop_filter.hit_multi_requests            0                       # Number of requests hitting in the snoop filter with multiple (>1) holders of the requested data.
system.membus.snoop_filter.hit_multi_snoops            0                       # Number of snoops hitting in the snoop filter with multiple (>1) holders of the requested data.
system.membus.snoop_filter.hit_single_requests       115259                       # Number of requests hitting in the snoop filter with a single holder of the requested data.
system.membus.snoop_filter.hit_single_snoops            0                       # Number of snoops hitting in the snoop filter with a single holder of the requested data.
system.membus.snoop_filter.tot_requests        296426                       # Total number of requests made to the snoop filter.
system.membus.snoop_filter.tot_snoops               0                       # Total number of snoops made to the snoop filter.
system.tol2bus.snoop_filter.hit_multi_requests         1295                       # Number of requests hitting in the snoop filter with multiple (>1) holders of the requested data.
system.tol2bus.snoop_filter.hit_multi_snoops            0                       # Number of snoops hitting in the snoop filter with multiple (>1) holders of the requested data.
system.tol2bus.snoop_filter.hit_single_requests       987098                       # Number of requests hitting in the snoop filter with a single holder of the requested data.
system.tol2bus.snoop_filter.hit_single_snoops          459                       # Number of snoops hitting in the snoop filter with a single holder of the requested data.
system.tol2bus.snoop_filter.tot_requests      1975211                       # Total number of requests made to the snoop filter.
system.tol2bus.snoop_filter.tot_snoops            459                       # Total number of snoops made to the snoop filter.
system.clk_domain.clock                          1000                       # Clock period in ticks
system.cpu.branchPred.lookups                 4485870                       # Number of BP lookups
system.cpu.branchPred.condPredicted           3735514                       # Number of conditional branches predicted
system.cpu.branchPred.condIncorrect             81006                       # Number of conditional branches incorrect
system.cpu.branchPred.BTBLookups              2103874                       # Number of BTB lookups
system.cpu.branchPred.BTBHits                 2101878                       # Number of BTB hits
system.cpu.branchPred.BTBHitPct             99.905127                       # BTB Hit Percentage
system.cpu.branchPred.RASUsed                   65389                       # Number of times the RAS was used to get a target.
system.cpu.branchPred.RASIncorrect                 14                       # Number of incorrect RAS predictions.
system.cpu.branchPred.indirectLookups             699                       # Number of indirect predictor lookups.
system.cpu.branchPred.indirectHits                289                       # Number of indirect target hits.
system.cpu.branchPred.indirectMisses              410                       # Number of indirect misses.
system.cpu.branchPred.indirectMispredicted          171                       # Number of mispredicted indirect branches.
system.cpu.dcache.demand_hits::.cpu.data     51025532                       # number of demand (read+write) hits
system.cpu.dcache.demand_hits::total         51025532                       # number of demand (read+write) hits
system.cpu.dcache.overall_hits::.cpu.data     51025955                       # number of overall hits
system.cpu.dcache.overall_hits::total        51025955                       # number of overall hits
system.cpu.dcache.demand_misses::.cpu.data      1047509                       # number of demand (read+write) misses
system.cpu.dcache.demand_misses::total        1047509                       # number of demand (read+write) misses
system.cpu.dcache.overall_misses::.cpu.data      1055504                       # number of overall misses
system.cpu.dcache.overall_misses::total       1055504                       # number of overall misses
system.cpu.dcache.demand_miss_latency::.cpu.data  26996388495                       # number of demand (read+write) miss cycles
system.cpu.dcache.demand_miss_latency::total  26996388495                       # number of demand (read+write) miss cycles
system.cpu.dcache.overall_miss_latency::.cpu.data  26996388495                       # number of overall miss cycles
system.cpu.dcache.overall_miss_latency::total  26996388495                       # number of overall miss cycles
system.cpu.dcache.demand_accesses::.cpu.data     52073041                       # number of demand (read+write) accesses
system.cpu.dcache.demand_accesses::total     52073041                       # number of demand (read+write) accesses
system.cpu.dcache.overall_accesses::.cpu.data     52081459                       # number of overall (read+write) accesses
system.cpu.dcache.overall_accesses::total     52081459                       # number of overall (read+write) accesses
system.cpu.dcache.demand_miss_rate::.cpu.data     0.020116                       # miss rate for demand accesses
system.cpu.dcache.demand_miss_rate::total     0.020116                       # miss rate for demand accesses
system.cpu.dcache.overall_miss_rate::.cpu.data     0.020266                       # miss rate for overall accesses
system.cpu.dcache.overall_miss_rate::total     0.020266                       # miss rate for overall accesses
system.cpu.dcache.demand_avg_miss_latency::.cpu.data 25771.987157                       # average overall miss latency
system.cpu.dcache.demand_avg_miss_latency::total 25771.987157                       # average overall miss latency
system.cpu.dcache.overall_avg_miss_latency::.cpu.data 25576.775166                       # average overall miss latency
system.cpu.dcache.overall_avg_miss_latency::total 25576.775166                       # average overall miss latency
system.cpu.dcache.blocked_cycles::no_mshrs       226925                       # number of cycles access was blocked
system.cpu.dcache.blocked_cycles::no_targets            0                       # number of cycles access was blocked
system.cpu.dcache.blocked::no_mshrs              4270                       # number of cycles access was blocked
system.cpu.dcache.blocked::no_targets               0                       # number of cycles access was blocked
system.cpu.dcache.avg_blocked_cycles::no_mshrs    53.144028                       # average number of cycles each access was blocked
system.cpu.dcache.avg_blocked_cycles::no_targets          nan                       # average number of cycles each access was blocked
system.cpu.dcache.writebacks::.writebacks       927572                       # number of writebacks
system.cpu.dcache.writebacks::total            927572                       # number of writebacks
system.cpu.dcache.demand_mshr_hits::.cpu.data        68124                       # number of demand (read+write) MSHR hits
system.cpu.dcache.demand_mshr_hits::total        68124                       # number of demand (read+write) MSHR hits
system.cpu.dcache.overall_mshr_hits::.cpu.data        68124                       # number of overall MSHR hits
system.cpu.dcache.overall_mshr_hits::total        68124                       # number of overall MSHR hits
system.cpu.dcache.demand_mshr_misses::.cpu.data       979385                       # number of demand (read+write) MSHR misses
system.cpu.dcache.demand_mshr_misses::total       979385                       # number of demand (read+write) MSHR misses
system.cpu.dcache.overall_mshr_misses::.cpu.data       987376                       # number of overall MSHR misses
system.cpu.dcache.overall_mshr_misses::total       987376                       # number of overall MSHR misses
system.cpu.dcache.demand_mshr_miss_latency::.cpu.data  24400122000                       # number of demand (read+write) MSHR miss cycles
system.cpu.dcache.demand_mshr_miss_latency::total  24400122000                       # number of demand (read+write) MSHR miss cycles
system.cpu.dcache.overall_mshr_miss_latency::.cpu.data  25077392499                       # number of overall MSHR miss cycles
system.cpu.dcache.overall_mshr_miss_latency::total  25077392499                       # number of overall MSHR miss cycles
system.cpu.dcache.demand_mshr_miss_rate::.cpu.data     0.018808                       # mshr miss rate for demand accesses
system.cpu.dcache.demand_mshr_miss_rate::total     0.018808                       # mshr miss rate for demand accesses
system.cpu.dcache.overall_mshr_miss_rate::.cpu.data     0.018958                       # mshr miss rate for overall accesses
system.cpu.dcache.overall_mshr_miss_rate::total     0.018958                       # mshr miss rate for overall accesses
system.cpu.dcache.demand_avg_mshr_miss_latency::.cpu.data 24913.718303                       # average overall mshr miss latency
system.cpu.dcache.demand_avg_mshr_miss_latency::total 24913.718303                       # average overall mshr miss latency
system.cpu.dcache.overall_avg_mshr_miss_latency::.cpu.data 25398.017066                       # average overall mshr miss latency
system.cpu.dcache.overall_avg_mshr_miss_latency::total 25398.017066                       # average overall mshr miss latency
system.cpu.dcache.replacements                 986864                       # number of replacements
system.cpu.dcache.ReadReq_hits::.cpu.data     40525204                       # number of ReadReq hits
system.cpu.dcache.ReadReq_hits::total        40525204                       # number of ReadReq hits
system.cpu.dcache.ReadReq_misses::.cpu.data       598755                       # number of ReadReq misses
system.cpu.dcache.ReadReq_misses::total        598755                       # number of ReadReq misses
system.cpu.dcache.ReadReq_miss_latency::.cpu.data  10903457000                       # number of ReadReq miss cycles
system.cpu.dcache.ReadReq_miss_latency::total  10903457000                       # number of ReadReq miss cycles
system.cpu.dcache.ReadReq_accesses::.cpu.data     41123959                       # number of ReadReq accesses(hits+misses)
system.cpu.dcache.ReadReq_accesses::total     41123959                       # number of ReadReq accesses(hits+misses)
system.cpu.dcache.ReadReq_miss_rate::.cpu.data     0.014560                       # miss rate for ReadReq accesses
system.cpu.dcache.ReadReq_miss_rate::total     0.014560                       # miss rate for ReadReq accesses
system.cpu.dcache.ReadReq_avg_miss_latency::.cpu.data 18210.214528                       # average ReadReq miss latency
system.cpu.dcache.ReadReq_avg_miss_latency::total 18210.214528                       # average ReadReq miss latency
system.cpu.dcache.ReadReq_mshr_hits::.cpu.data         3477                       # number of ReadReq MSHR hits
system.cpu.dcache.ReadReq_mshr_hits::total         3477                       # number of ReadReq MSHR hits
system.cpu.dcache.ReadReq_mshr_misses::.cpu.data       595278                       # number of ReadReq MSHR misses
system.cpu.dcache.ReadReq_mshr_misses::total       595278                       # number of ReadReq MSHR misses
system.cpu.dcache.ReadReq_mshr_miss_latency::.cpu.data  10226547000                       # number of ReadReq MSHR miss cycles
system.cpu.dcache.ReadReq_mshr_miss_latency::total  10226547000                       # number of ReadReq MSHR miss cycles
system.cpu.dcache.ReadReq_mshr_miss_rate::.cpu.data     0.014475                       # mshr miss rate for ReadReq accesses
system.cpu.dcache.ReadReq_mshr_miss_rate::total     0.014475                       # mshr miss rate for ReadReq accesses
system.cpu.dcache.ReadReq_avg_mshr_miss_latency::.cpu.data 17179.447250                       # average ReadReq mshr miss latency
system.cpu.dcache.ReadReq_avg_mshr_miss_latency::total 17179.447250                       # average ReadReq mshr miss latency
system.cpu.dcache.WriteReq_hits::.cpu.data     10500328                       # number of WriteReq hits
system.cpu.dcache.WriteReq_hits::total       10500328                       # number of WriteReq hits
system.cpu.dcache.WriteReq_misses::.cpu.data       448754                       # number of WriteReq misses
system.cpu.dcache.WriteReq_misses::total       448754                       # number of WriteReq misses
system.cpu.dcache.WriteReq_miss_latency::.cpu.data  16092931495                       # number of WriteReq miss cycles
system.cpu.dcache.WriteReq_miss_latency::total  16092931495                       # number of WriteReq miss cycles
system.cpu.dcache.WriteReq_accesses::.cpu.data     10949082                       # number of WriteReq accesses(hits+misses)
system.cpu.dcache.WriteReq_accesses::total     10949082                       # number of WriteReq accesses(hits+misses)
system.cpu.dcache.WriteReq_miss_rate::.cpu.data     0.040986                       # miss rate for WriteReq accesses
system.cpu.dcache.WriteReq_miss_rate::total     0.040986                       # miss rate for WriteReq accesses
system.cpu.dcache.WriteReq_avg_miss_latency::.cpu.data 35861.366127                       # average WriteReq miss latency
system.cpu.dcache.WriteReq_avg_miss_latency::total 35861.366127                       # average WriteReq miss latency
system.cpu.dcache.WriteReq_mshr_hits::.cpu.data        64647                       # number of WriteReq MSHR hits
system.cpu.dcache.WriteReq_mshr_hits::total        64647                       # number of WriteReq MSHR hits
system.cpu.dcache.WriteReq_mshr_misses::.cpu.data       384107                       # number of WriteReq MSHR misses
system.cpu.dcache.WriteReq_mshr_misses::total       384107                       # number of WriteReq MSHR misses
system.cpu.dcache.WriteReq_mshr_miss_latency::.cpu.data  14173575000                       # number of WriteReq MSHR miss cycles
system.cpu.dcache.WriteReq_mshr_miss_latency::total  14173575000                       # number of WriteReq MSHR miss cycles
system.cpu.dcache.WriteReq_mshr_miss_rate::.cpu.data     0.035081                       # mshr miss rate for WriteReq accesses
system.cpu.dcache.WriteReq_mshr_miss_rate::total     0.035081                       # mshr miss rate for WriteReq accesses
system.cpu.dcache.WriteReq_avg_mshr_miss_latency::.cpu.data 36900.069512                       # average WriteReq mshr miss latency
system.cpu.dcache.WriteReq_avg_mshr_miss_latency::total 36900.069512                       # average WriteReq mshr miss latency
system.cpu.dcache.SoftPFReq_hits::.cpu.data          423                       # number of SoftPFReq hits
system.cpu.dcache.SoftPFReq_hits::total           423                       # number of SoftPFReq hits
system.cpu.dcache.SoftPFReq_misses::.cpu.data         7995                       # number of SoftPFReq misses
system.cpu.dcache.SoftPFReq_misses::total         7995                       # number of SoftPFReq misses
system.cpu.dcache.SoftPFReq_accesses::.cpu.data         8418                       # number of SoftPFReq accesses(hits+misses)
system.cpu.dcache.SoftPFReq_accesses::total         8418                       # number of SoftPFReq accesses(hits+misses)
system.cpu.dcache.SoftPFReq_miss_rate::.cpu.data     0.949751                       # miss rate for SoftPFReq accesses
system.cpu.dcache.SoftPFReq_miss_rate::total     0.949751                       # miss rate for SoftPFReq accesses
system.cpu.dcache.SoftPFReq_mshr_misses::.cpu.data         7991                       # number of SoftPFReq MSHR misses
system.cpu.dcache.SoftPFReq_mshr_misses::total         7991                       # number of SoftPFReq MSHR misses
system.cpu.dcache.SoftPFReq_mshr_miss_latency::.cpu.data    677270499                       # number of SoftPFReq MSHR miss cycles
system.cpu.dcache.SoftPFReq_mshr_miss_latency::total    677270499                       # number of SoftPFReq MSHR miss cycles
system.cpu.dcache.SoftPFReq_mshr_miss_rate::.cpu.data     0.949275                       # mshr miss rate for SoftPFReq accesses
system.cpu.dcache.SoftPFReq_mshr_miss_rate::total     0.949275                       # mshr miss rate for SoftPFReq accesses
system.cpu.dcache.SoftPFReq_avg_mshr_miss_latency::.cpu.data 84754.160806                       # average SoftPFReq mshr miss latency
system.cpu.dcache.SoftPFReq_avg_mshr_miss_latency::total 84754.160806                       # average SoftPFReq mshr miss latency
system.cpu.dcache.LoadLockedReq_hits::.cpu.data           38                       # number of LoadLockedReq hits
system.cpu.dcache.LoadLockedReq_hits::total           38                       # number of LoadLockedReq hits
system.cpu.dcache.LoadLockedReq_accesses::.cpu.data           38                       # number of LoadLockedReq accesses(hits+misses)
system.cpu.dcache.LoadLockedReq_accesses::total           38                       # number of LoadLockedReq accesses(hits+misses)
system.cpu.dcache.StoreCondReq_hits::.cpu.data           38                       # number of StoreCondReq hits
system.cpu.dcache.StoreCondReq_hits::total           38                       # number of StoreCondReq hits
system.cpu.dcache.StoreCondReq_accesses::.cpu.data           38                       # number of StoreCondReq accesses(hits+misses)
system.cpu.dcache.StoreCondReq_accesses::total           38                       # number of StoreCondReq accesses(hits+misses)
system.cpu.dcache.power_state.pwrStateResidencyTicks::UNDEFINED  85132797000                       # Cumulative time (in ticks) in various power states
system.cpu.dcache.tags.tagsinuse           505.279293                       # Cycle average of tags in use
system.cpu.dcache.tags.total_refs            52013407                       # Total number of references to valid blocks.
system.cpu.dcache.tags.sampled_refs            987376                       # Sample count of references to valid blocks.
system.cpu.dcache.tags.avg_refs             52.678419                       # Average number of references to valid blocks.
system.cpu.dcache.tags.warmup_cycle            176500                       # Cycle when the warmup percentage was hit.
system.cpu.dcache.tags.occ_blocks::.cpu.data   505.279293                       # Average occupied blocks per requestor
system.cpu.dcache.tags.occ_percent::.cpu.data     0.986874                       # Average percentage of cache occupancy
system.cpu.dcache.tags.occ_percent::total     0.986874                       # Average percentage of cache occupancy
system.cpu.dcache.tags.occ_task_id_blocks::1024          512                       # Occupied blocks per task id
system.cpu.dcache.tags.age_task_id_blocks_1024::0           76                       # Occupied blocks per task id
system.cpu.dcache.tags.age_task_id_blocks_1024::1          326                       # Occupied blocks per task id
system.cpu.dcache.tags.age_task_id_blocks_1024::2          110                       # Occupied blocks per task id
system.cpu.dcache.tags.occ_task_id_percent::1024            1                       # Percentage of cache occupancy per task id
system.cpu.dcache.tags.tag_accesses          53068911                       # Number of tag accesses
system.cpu.dcache.tags.data_accesses         53068911                       # Number of data accesses
system.cpu.dcache.tags.power_state.pwrStateResidencyTicks::UNDEFINED  85132797000                       # Cumulative time (in ticks) in various power states
system.cpu.dtb.instHits                             0                       # ITB inst hits
system.cpu.dtb.instMisses                           0                       # ITB inst misses
system.cpu.dtb.readHits                             0                       # DTB read hits
system.cpu.dtb.readMisses                           0                       # DTB read misses
system.cpu.dtb.writeHits                            0                       # DTB write hits
system.cpu.dtb.writeMisses                          0                       # DTB write misses
system.cpu.dtb.inserts                              0                       # Number of times an entry is inserted into the TLB
system.cpu.dtb.flushTlb                             0                       # Number of times complete TLB was flushed
system.cpu.dtb.flushTlbMva                          0                       # Number of times TLB was flushed by MVA
system.cpu.dtb.flushTlbMvaAsid                      0                       # Number of times TLB was flushed by MVA & ASID
system.cpu.dtb.flushTlbAsid                         0                       # Number of times TLB was flushed by ASID
system.cpu.dtb.flushedEntries                       0                       # Number of entries that have been flushed from TLB
system.cpu.dtb.alignFaults                          0                       # Number of TLB faults due to alignment restrictions
system.cpu.dtb.prefetchFaults                       0                       # Number of TLB faults due to prefetch
system.cpu.dtb.domainFaults                         0                       # Number of TLB faults due to domain restrictions
system.cpu.dtb.permsFaults                          0                       # Number of TLB faults due to permissions restrictions
system.cpu.dtb.readAccesses                         0                       # DTB read accesses
system.cpu.dtb.writeAccesses                        0                       # DTB write accesses
system.cpu.dtb.instAccesses                         0                       # ITB inst accesses
system.cpu.dtb.hits                                 0                       # Total TLB (inst and data) hits
system.cpu.dtb.misses                               0                       # Total TLB (inst and data) misses
system.cpu.dtb.accesses                             0                       # Total TLB (inst and data) accesses
system.cpu.dtb.stage2_mmu.stage2_tlb.instHits            0                       # ITB inst hits
system.cpu.dtb.stage2_mmu.stage2_tlb.instMisses            0                       # ITB inst misses
system.cpu.dtb.stage2_mmu.stage2_tlb.readHits            0                       # DTB read hits
system.cpu.dtb.stage2_mmu.stage2_tlb.readMisses            0                       # DTB read misses
system.cpu.dtb.stage2_mmu.stage2_tlb.writeHits            0                       # DTB write hits
system.cpu.dtb.stage2_mmu.stage2_tlb.writeMisses            0                       # DTB write misses
system.cpu.dtb.stage2_mmu.stage2_tlb.inserts            0                       # Number of times an entry is inserted into the TLB
system.cpu.dtb.stage2_mmu.stage2_tlb.flushTlb            0                       # Number of times complete TLB was flushed
system.cpu.dtb.stage2_mmu.stage2_tlb.flushTlbMva            0                       # Number of times TLB was flushed by MVA
system.cpu.dtb.stage2_mmu.stage2_tlb.flushTlbMvaAsid            0                       # Number of times TLB was flushed by MVA & ASID
system.cpu.dtb.stage2_mmu.stage2_tlb.flushTlbAsid            0                       # Number of times TLB was flushed by ASID
system.cpu.dtb.stage2_mmu.stage2_tlb.flushedEntries            0                       # Number of entries that have been flushed from TLB
system.cpu.dtb.stage2_mmu.stage2_tlb.alignFaults            0                       # Number of TLB faults due to alignment restrictions
system.cpu.dtb.stage2_mmu.stage2_tlb.prefetchFaults            0                       # Number of TLB faults due to prefetch
system.cpu.dtb.stage2_mmu.stage2_tlb.domainFaults            0                       # Number of TLB faults due to domain restrictions
system.cpu.dtb.stage2_mmu.stage2_tlb.permsFaults            0                       # Number of TLB faults due to permissions restrictions
system.cpu.dtb.stage2_mmu.stage2_tlb.readAccesses            0                       # DTB read accesses
system.cpu.dtb.stage2_mmu.stage2_tlb.writeAccesses            0                       # DTB write accesses
system.cpu.dtb.stage2_mmu.stage2_tlb.instAccesses            0                       # ITB inst accesses
system.cpu.dtb.stage2_mmu.stage2_tlb.hits            0                       # Total TLB (inst and data) hits
system.cpu.dtb.stage2_mmu.stage2_tlb.misses            0                       # Total TLB (inst and data) misses
system.cpu.dtb.stage2_mmu.stage2_tlb.accesses            0                       # Total TLB (inst and data) accesses
system.cpu.dtb.stage2_mmu.stage2_tlb.walker.walks            0                       # Table walker walks requested
system.cpu.dtb.stage2_mmu.stage2_tlb.walker.requestOrigin_Requested::Data            0                       # Table walker requests started/completed, data/inst
system.cpu.dtb.stage2_mmu.stage2_tlb.walker.requestOrigin_Requested::Inst            0                       # Table walker requests started/completed, data/inst
system.cpu.dtb.stage2_mmu.stage2_tlb.walker.requestOrigin_Requested::total            0                       # Table walker requests started/completed, data/inst
system.cpu.dtb.stage2_mmu.stage2_tlb.walker.requestOrigin_Completed::Data            0                       # Table walker requests started/completed, data/inst
system.cpu.dtb.stage2_mmu.stage2_tlb.walker.requestOrigin_Completed::Inst            0                       # Table walker requests started/completed, data/inst
system.cpu.dtb.stage2_mmu.stage2_tlb.walker.requestOrigin_Completed::total            0                       # Table walker requests started/completed, data/inst
system.cpu.dtb.stage2_mmu.stage2_tlb.walker.requestOrigin::total            0                       # Table walker requests started/completed, data/inst
system.cpu.dtb.stage2_mmu.stage2_tlb.walker.power_state.pwrStateResidencyTicks::UNDEFINED  85132797000                       # Cumulative time (in ticks) in various power states
system.cpu.dtb.walker.walks                         0                       # Table walker walks requested
system.cpu.dtb.walker.requestOrigin_Requested::Data            0                       # Table walker requests started/completed, data/inst
system.cpu.dtb.walker.requestOrigin_Requested::Inst            0                       # Table walker requests started/completed, data/inst
system.cpu.dtb.walker.requestOrigin_Requested::total            0                       # Table walker requests started/completed, data/inst
system.cpu.dtb.walker.requestOrigin_Completed::Data            0                       # Table walker requests started/completed, data/inst
system.cpu.dtb.walker.requestOrigin_Completed::Inst            0                       # Table walker requests started/completed, data/inst
system.cpu.dtb.walker.requestOrigin_Completed::total            0                       # Table walker requests started/completed, data/inst
system.cpu.dtb.walker.requestOrigin::total            0                       # Table walker requests started/completed, data/inst
system.cpu.dtb.walker.power_state.pwrStateResidencyTicks::UNDEFINED  85132797000                       # Cumulative time (in ticks) in various power states
system.cpu.fetch2.intInstructions            42686367                       # Number of integer instructions successfully decoded
system.cpu.fetch2.fpInstructions                    0                       # Number of floating point instructions successfully decoded
system.cpu.fetch2.vecInstructions                   0                       # Number of SIMD instructions successfully decoded
system.cpu.fetch2.loadInstructions           43475476                       # Number of memory load instructions successfully decoded
system.cpu.fetch2.storeInstructions          11025089                       # Number of memory store instructions successfully decoded
system.cpu.fetch2.amoInstructions                   0                       # Number of memory atomic instructions successfully decoded
system.cpu.icache.demand_hits::.cpu.inst     10278604                       # number of demand (read+write) hits
system.cpu.icache.demand_hits::total         10278604                       # number of demand (read+write) hits
system.cpu.icache.overall_hits::.cpu.inst     10278604                       # number of overall hits
system.cpu.icache.overall_hits::total        10278604                       # number of overall hits
system.cpu.icache.demand_misses::.cpu.inst          738                       # number of demand (read+write) misses
system.cpu.icache.demand_misses::total            738                       # number of demand (read+write) misses
system.cpu.icache.overall_misses::.cpu.inst          738                       # number of overall misses
system.cpu.icache.overall_misses::total           738                       # number of overall misses
system.cpu.icache.demand_miss_latency::.cpu.inst     54658000                       # number of demand (read+write) miss cycles
system.cpu.icache.demand_miss_latency::total     54658000                       # number of demand (read+write) miss cycles
system.cpu.icache.overall_miss_latency::.cpu.inst     54658000                       # number of overall miss cycles
system.cpu.icache.overall_miss_latency::total     54658000                       # number of overall miss cycles
system.cpu.icache.demand_accesses::.cpu.inst     10279342                       # number of demand (read+write) accesses
system.cpu.icache.demand_accesses::total     10279342                       # number of demand (read+write) accesses
system.cpu.icache.overall_accesses::.cpu.inst     10279342                       # number of overall (read+write) accesses
system.cpu.icache.overall_accesses::total     10279342                       # number of overall (read+write) accesses
system.cpu.icache.demand_miss_rate::.cpu.inst     0.000072                       # miss rate for demand accesses
system.cpu.icache.demand_miss_rate::total     0.000072                       # miss rate for demand accesses
system.cpu.icache.overall_miss_rate::.cpu.inst     0.000072                       # miss rate for overall accesses
system.cpu.icache.overall_miss_rate::total     0.000072                       # miss rate for overall accesses
system.cpu.icache.demand_avg_miss_latency::.cpu.inst 74062.330623                       # average overall miss latency
system.cpu.icache.demand_avg_miss_latency::total 74062.330623                       # average overall miss latency
system.cpu.icache.overall_avg_miss_latency::.cpu.inst 74062.330623                       # average overall miss latency
system.cpu.icache.overall_avg_miss_latency::total 74062.330623                       # average overall miss latency
system.cpu.icache.blocked_cycles::no_mshrs            0                       # number of cycles access was blocked
system.cpu.icache.blocked_cycles::no_targets            0                       # number of cycles access was blocked
system.cpu.icache.blocked::no_mshrs                 0                       # number of cycles access was blocked
system.cpu.icache.blocked::no_targets               0                       # number of cycles access was blocked
system.cpu.icache.avg_blocked_cycles::no_mshrs          nan                       # average number of cycles each access was blocked
system.cpu.icache.avg_blocked_cycles::no_targets          nan                       # average number of cycles each access was blocked
system.cpu.icache.writebacks::.writebacks          233                       # number of writebacks
system.cpu.icache.writebacks::total               233                       # number of writebacks
system.cpu.icache.demand_mshr_misses::.cpu.inst          738                       # number of demand (read+write) MSHR misses
system.cpu.icache.demand_mshr_misses::total          738                       # number of demand (read+write) MSHR misses
system.cpu.icache.overall_mshr_misses::.cpu.inst          738                       # number of overall MSHR misses
system.cpu.icache.overall_mshr_misses::total          738                       # number of overall MSHR misses
system.cpu.icache.demand_mshr_miss_latency::.cpu.inst     53920000                       # number of demand (read+write) MSHR miss cycles
system.cpu.icache.demand_mshr_miss_latency::total     53920000                       # number of demand (read+write) MSHR miss cycles
system.cpu.icache.overall_mshr_miss_latency::.cpu.inst     53920000                       # number of overall MSHR miss cycles
system.cpu.icache.overall_mshr_miss_latency::total     53920000                       # number of overall MSHR miss cycles
system.cpu.icache.demand_mshr_miss_rate::.cpu.inst     0.000072                       # mshr miss rate for demand accesses
system.cpu.icache.demand_mshr_miss_rate::total     0.000072                       # mshr miss rate for demand accesses
system.cpu.icache.overall_mshr_miss_rate::.cpu.inst     0.000072                       # mshr miss rate for overall accesses
system.cpu.icache.overall_mshr_miss_rate::total     0.000072                       # mshr miss rate for overall accesses
system.cpu.icache.demand_avg_mshr_miss_latency::.cpu.inst 73062.330623                       # average overall mshr miss latency
system.cpu.icache.demand_avg_mshr_miss_latency::total 73062.330623                       # average overall mshr miss latency
system.cpu.icache.overall_avg_mshr_miss_latency::.cpu.inst 73062.330623                       # average overall mshr miss latency
system.cpu.icache.overall_avg_mshr_miss_latency::total 73062.330623                       # average overall mshr miss latency
system.cpu.icache.replacements                    233                       # number of replacements
system.cpu.icache.ReadReq_hits::.cpu.inst     10278604                       # number of ReadReq hits
system.cpu.icache.ReadReq_hits::total        10278604                       # number of ReadReq hits
system.cpu.icache.ReadReq_misses::.cpu.inst          738                       # number of ReadReq misses
system.cpu.icache.ReadReq_misses::total           738                       # number of ReadReq misses
system.cpu.icache.ReadReq_miss_latency::.cpu.inst     54658000                       # number of ReadReq miss cycles
system.cpu.icache.ReadReq_miss_latency::total     54658000                       # number of ReadReq miss cycles
system.cpu.icache.ReadReq_accesses::.cpu.inst     10279342                       # number of ReadReq accesses(hits+misses)
system.cpu.icache.ReadReq_accesses::total     10279342                       # number of ReadReq accesses(hits+misses)
system.cpu.icache.ReadReq_miss_rate::.cpu.inst     0.000072                       # miss rate for ReadReq accesses
system.cpu.icache.ReadReq_miss_rate::total     0.000072                       # miss rate for ReadReq accesses
system.cpu.icache.ReadReq_avg_miss_latency::.cpu.inst 74062.330623                       # average ReadReq miss latency
system.cpu.icache.ReadReq_avg_miss_latency::total 74062.330623                       # average ReadReq miss latency
system.cpu.icache.ReadReq_mshr_misses::.cpu.inst          738                       # number of ReadReq MSHR misses
system.cpu.icache.ReadReq_mshr_misses::total          738                       # number of ReadReq MSHR misses
system.cpu.icache.ReadReq_mshr_miss_latency::.cpu.inst     53920000                       # number of ReadReq MSHR miss cycles
system.cpu.icache.ReadReq_mshr_miss_latency::total     53920000                       # number of ReadReq MSHR miss cycles
system.cpu.icache.ReadReq_mshr_miss_rate::.cpu.inst     0.000072                       # mshr miss rate for ReadReq accesses
system.cpu.icache.ReadReq_mshr_miss_rate::total     0.000072                       # mshr miss rate for ReadReq accesses
system.cpu.icache.ReadReq_avg_mshr_miss_latency::.cpu.inst 73062.330623                       # average ReadReq mshr miss latency
system.cpu.icache.ReadReq_avg_mshr_miss_latency::total 73062.330623                       # average ReadReq mshr miss latency
system.cpu.icache.power_state.pwrStateResidencyTicks::UNDEFINED  85132797000                       # Cumulative time (in ticks) in various power states
system.cpu.icache.tags.tagsinuse           407.533139                       # Cycle average of tags in use
system.cpu.icache.tags.total_refs            10279342                       # Total number of references to valid blocks.
system.cpu.icache.tags.sampled_refs               738                       # Sample count of references to valid blocks.
system.cpu.icache.tags.avg_refs          13928.647696                       # Average number of references to valid blocks.
system.cpu.icache.tags.warmup_cycle             87500                       # Cycle when the warmup percentage was hit.
system.cpu.icache.tags.occ_blocks::.cpu.inst   407.533139                       # Average occupied blocks per requestor
system.cpu.icache.tags.occ_percent::.cpu.inst     0.397982                       # Average percentage of cache occupancy
system.cpu.icache.tags.occ_percent::total     0.397982                       # Average percentage of cache occupancy
system.cpu.icache.tags.occ_task_id_blocks::1024          505                       # Occupied blocks per task id
system.cpu.icache.tags.age_task_id_blocks_1024::3          107                       # Occupied blocks per task id
system.cpu.icache.tags.age_task_id_blocks_1024::4          398                       # Occupied blocks per task id
system.cpu.icache.tags.occ_task_id_percent::1024     0.493164                       # Percentage of cache occupancy per task id
system.cpu.icache.tags.tag_accesses          10280080                       # Number of tag accesses
system.cpu.icache.tags.data_accesses         10280080                       # Number of data accesses
system.cpu.icache.tags.power_state.pwrStateResidencyTicks::UNDEFINED  85132797000                       # Cumulative time (in ticks) in various power states
system.cpu.itb.instHits                             0                       # ITB inst hits
system.cpu.itb.instMisses                           0                       # ITB inst misses
system.cpu.itb.readHits                             0                       # DTB read hits
system.cpu.itb.readMisses                           0                       # DTB read misses
system.cpu.itb.writeHits                            0                       # DTB write hits
system.cpu.itb.writeMisses                          0                       # DTB write misses
system.cpu.itb.inserts                              0                       # Number of times an entry is inserted into the TLB
system.cpu.itb.flushTlb                             0                       # Number of times complete TLB was flushed
system.cpu.itb.flushTlbMva                          0                       # Number of times TLB was flushed by MVA
system.cpu.itb.flushTlbMvaAsid                      0                       # Number of times TLB was flushed by MVA & ASID
system.cpu.itb.flushTlbAsid                         0                       # Number of times TLB was flushed by ASID
system.cpu.itb.flushedEntries                       0                       # Number of entries that have been flushed from TLB
system.cpu.itb.alignFaults                          0                       # Number of TLB faults due to alignment restrictions
system.cpu.itb.prefetchFaults                       0                       # Number of TLB faults due to prefetch
system.cpu.itb.domainFaults                         0                       # Number of TLB faults due to domain restrictions
system.cpu.itb.permsFaults                          0                       # Number of TLB faults due to permissions restrictions
system.cpu.itb.readAccesses                         0                       # DTB read accesses
system.cpu.itb.writeAccesses                        0                       # DTB write accesses
system.cpu.itb.instAccesses                         0                       # ITB inst accesses
system.cpu.itb.hits                                 0                       # Total TLB (inst and data) hits
system.cpu.itb.misses                               0                       # Total TLB (inst and data) misses
system.cpu.itb.accesses                             0                       # Total TLB (inst and data) accesses
system.cpu.itb.stage2_mmu.stage2_tlb.instHits            0                       # ITB inst hits
system.cpu.itb.stage2_mmu.stage2_tlb.instMisses            0                       # ITB inst misses
system.cpu.itb.stage2_mmu.stage2_tlb.readHits            0                       # DTB read hits
system.cpu.itb.stage2_mmu.stage2_tlb.readMisses            0                       # DTB read misses
system.cpu.itb.stage2_mmu.stage2_tlb.writeHits            0                       # DTB write hits
system.cpu.itb.stage2_mmu.stage2_tlb.writeMisses            0                       # DTB write misses
system.cpu.itb.stage2_mmu.stage2_tlb.inserts            0                       # Number of times an entry is inserted into the TLB
system.cpu.itb.stage2_mmu.stage2_tlb.flushTlb            0                       # Number of times complete TLB was flushed
system.cpu.itb.stage2_mmu.stage2_tlb.flushTlbMva            0                       # Number of times TLB was flushed by MVA
system.cpu.itb.stage2_mmu.stage2_tlb.flushTlbMvaAsid            0                       # Number of times TLB was flushed by MVA & ASID
system.cpu.itb.stage2_mmu.stage2_tlb.flushTlbAsid            0                       # Number of times TLB was flushed by ASID
system.cpu.itb.stage2_mmu.stage2_tlb.flushedEntries            0                       # Number of entries that have been flushed from TLB
system.cpu.itb.stage2_mmu.stage2_tlb.alignFaults            0                       # Number of TLB faults due to alignment restrictions
system.cpu.itb.stage2_mmu.stage2_tlb.prefetchFaults            0                       # Number of TLB faults due to prefetch
system.cpu.itb.stage2_mmu.stage2_tlb.domainFaults            0                       # Number of TLB faults due to domain restrictions
system.cpu.itb.stage2_mmu.stage2_tlb.permsFaults            0                       # Number of TLB faults due to permissions restrictions
system.cpu.itb.stage2_mmu.stage2_tlb.readAccesses            0                       # DTB read accesses
system.cpu.itb.stage2_mmu.stage2_tlb.writeAccesses            0                       # DTB write accesses
system.cpu.itb.stage2_mmu.stage2_tlb.instAccesses            0                       # ITB inst accesses
system.cpu.itb.stage2_mmu.stage2_tlb.hits            0                       # Total TLB (inst and data) hits
system.cpu.itb.stage2_mmu.stage2_tlb.misses            0                       # Total TLB (inst and data) misses
system.cpu.itb.stage2_mmu.stage2_tlb.accesses            0                       # Total TLB (inst and data) accesses
system.cpu.itb.stage2_mmu.stage2_tlb.walker.walks            0                       # Table walker walks requested
system.cpu.itb.stage2_mmu.stage2_tlb.walker.requestOrigin_Requested::Data            0                       # Table walker requests started/completed, data/inst
system.cpu.itb.stage2_mmu.stage2_tlb.walker.requestOrigin_Requested::Inst            0                       # Table walker requests started/completed, data/inst
system.cpu.itb.stage2_mmu.stage2_tlb.walker.requestOrigin_Requested::total            0                       # Table walker requests started/completed, data/inst
system.cpu.itb.stage2_mmu.stage2_tlb.walker.requestOrigin_Completed::Data            0                       # Table walker requests started/completed, data/inst
system.cpu.itb.stage2_mmu.stage2_tlb.walker.requestOrigin_Completed::Inst            0                       # Table walker requests started/completed, data/inst
system.cpu.itb.stage2_mmu.stage2_tlb.walker.requestOrigin_Completed::total            0                       # Table walker requests started/completed, data/inst
system.cpu.itb.stage2_mmu.stage2_tlb.walker.requestOrigin::total            0                       # Table walker requests started/completed, data/inst
system.cpu.itb.stage2_mmu.stage2_tlb.walker.power_state.pwrStateResidencyTicks::UNDEFINED  85132797000                       # Cumulative time (in ticks) in various power states
system.cpu.itb.walker.walks                         0                       # Table walker walks requested
system.cpu.itb.walker.requestOrigin_Requested::Data            0                       # Table walker requests started/completed, data/inst
system.cpu.itb.walker.requestOrigin_Requested::Inst            0                       # Table walker requests started/completed, data/inst
system.cpu.itb.walker.requestOrigin_Requested::total            0                       # Table walker requests started/completed, data/inst
system.cpu.itb.walker.requestOrigin_Completed::Data            0                       # Table walker requests started/completed, data/inst
system.cpu.itb.walker.requestOrigin_Completed::Inst            0                       # Table walker requests started/completed, data/inst
system.cpu.itb.walker.requestOrigin_Completed::total            0                       # Table walker requests started/completed, data/inst
system.cpu.itb.walker.requestOrigin::total            0                       # Table walker requests started/completed, data/inst
system.cpu.itb.walker.power_state.pwrStateResidencyTicks::UNDEFINED  85132797000                       # Cumulative time (in ticks) in various power states
system.cpu.power_state.pwrStateResidencyTicks::ON  85132797000                       # Cumulative time (in ticks) in various power states
system.cpu.thread0.numInsts                 100000001                       # Number of Instructions committed
system.cpu.thread0.numOps                   100196356                       # Number of Ops committed
system.cpu.thread0.numMemRefs                       0                       # Number of Memory References
system.cpu_clk_domain.clock                       500                       # Clock period in ticks
system.cpu_voltage_domain.voltage                   1                       # Voltage in Volts
system.l2.demand_hits::.cpu.inst                   72                       # number of demand (read+write) hits
system.l2.demand_hits::.cpu.data               806864                       # number of demand (read+write) hits
system.l2.demand_hits::total                   806936                       # number of demand (read+write) hits
system.l2.overall_hits::.cpu.inst                  72                       # number of overall hits
system.l2.overall_hits::.cpu.data              806864                       # number of overall hits
system.l2.overall_hits::total                  806936                       # number of overall hits
system.l2.demand_misses::.cpu.inst                666                       # number of demand (read+write) misses
system.l2.demand_misses::.cpu.data             180512                       # number of demand (read+write) misses
system.l2.demand_misses::total                 181178                       # number of demand (read+write) misses
system.l2.overall_misses::.cpu.inst               666                       # number of overall misses
system.l2.overall_misses::.cpu.data            180512                       # number of overall misses
system.l2.overall_misses::total                181178                       # number of overall misses
system.l2.demand_miss_latency::.cpu.inst     52035500                       # number of demand (read+write) miss cycles
system.l2.demand_miss_latency::.cpu.data  14849591000                       # number of demand (read+write) miss cycles
system.l2.demand_miss_latency::total      14901626500                       # number of demand (read+write) miss cycles
system.l2.overall_miss_latency::.cpu.inst     52035500                       # number of overall miss cycles
system.l2.overall_miss_latency::.cpu.data  14849591000                       # number of overall miss cycles
system.l2.overall_miss_latency::total     14901626500                       # number of overall miss cycles
system.l2.demand_accesses::.cpu.inst              738                       # number of demand (read+write) accesses
system.l2.demand_accesses::.cpu.data           987376                       # number of demand (read+write) accesses
system.l2.demand_accesses::total               988114                       # number of demand (read+write) accesses
system.l2.overall_accesses::.cpu.inst             738                       # number of overall (read+write) accesses
system.l2.overall_accesses::.cpu.data          987376                       # number of overall (read+write) accesses
system.l2.overall_accesses::total              988114                       # number of overall (read+write) accesses
system.l2.demand_miss_rate::.cpu.inst        0.902439                       # miss rate for demand accesses
system.l2.demand_miss_rate::.cpu.data        0.182820                       # miss rate for demand accesses
system.l2.demand_miss_rate::total            0.183357                       # miss rate for demand accesses
system.l2.overall_miss_rate::.cpu.inst       0.902439                       # miss rate for overall accesses
system.l2.overall_miss_rate::.cpu.data       0.182820                       # miss rate for overall accesses
system.l2.overall_miss_rate::total           0.183357                       # miss rate for overall accesses
system.l2.demand_avg_miss_latency::.cpu.inst 78131.381381                       # average overall miss latency
system.l2.demand_avg_miss_latency::.cpu.data 82263.733159                       # average overall miss latency
system.l2.demand_avg_miss_latency::total 82248.542869                       # average overall miss latency
system.l2.overall_avg_miss_latency::.cpu.inst 78131.381381                       # average overall miss latency
system.l2.overall_avg_miss_latency::.cpu.data 82263.733159                       # average overall miss latency
system.l2.overall_avg_miss_latency::total 82248.542869                       # average overall miss latency
system.l2.blocked_cycles::no_mshrs                  0                       # number of cycles access was blocked
system.l2.blocked_cycles::no_targets                0                       # number of cycles access was blocked
system.l2.blocked::no_mshrs                         0                       # number of cycles access was blocked
system.l2.blocked::no_targets                       0                       # number of cycles access was blocked
system.l2.avg_blocked_cycles::no_mshrs            nan                       # average number of cycles each access was blocked
system.l2.avg_blocked_cycles::no_targets          nan                       # average number of cycles each access was blocked
system.l2.writebacks::.writebacks               63409                       # number of writebacks
system.l2.writebacks::total                     63409                       # number of writebacks
system.l2.demand_mshr_hits::.cpu.data               6                       # number of demand (read+write) MSHR hits
system.l2.demand_mshr_hits::total                   6                       # number of demand (read+write) MSHR hits
system.l2.overall_mshr_hits::.cpu.data              6                       # number of overall MSHR hits
system.l2.overall_mshr_hits::total                  6                       # number of overall MSHR hits
system.l2.demand_mshr_misses::.cpu.inst           666                       # number of demand (read+write) MSHR misses
system.l2.demand_mshr_misses::.cpu.data        180506                       # number of demand (read+write) MSHR misses
system.l2.demand_mshr_misses::total            181172                       # number of demand (read+write) MSHR misses
system.l2.overall_mshr_misses::.cpu.inst          666                       # number of overall MSHR misses
system.l2.overall_mshr_misses::.cpu.data       180506                       # number of overall MSHR misses
system.l2.overall_mshr_misses::total           181172                       # number of overall MSHR misses
system.l2.demand_mshr_miss_latency::.cpu.inst     45375500                       # number of demand (read+write) MSHR miss cycles
system.l2.demand_mshr_miss_latency::.cpu.data  13044154000                       # number of demand (read+write) MSHR miss cycles
system.l2.demand_mshr_miss_latency::total  13089529500                       # number of demand (read+write) MSHR miss cycles
system.l2.overall_mshr_miss_latency::.cpu.inst     45375500                       # number of overall MSHR miss cycles
system.l2.overall_mshr_miss_latency::.cpu.data  13044154000                       # number of overall MSHR miss cycles
system.l2.overall_mshr_miss_latency::total  13089529500                       # number of overall MSHR miss cycles
system.l2.demand_mshr_miss_rate::.cpu.inst     0.902439                       # mshr miss rate for demand accesses
system.l2.demand_mshr_miss_rate::.cpu.data     0.182814                       # mshr miss rate for demand accesses
system.l2.demand_mshr_miss_rate::total       0.183351                       # mshr miss rate for demand accesses
system.l2.overall_mshr_miss_rate::.cpu.inst     0.902439                       # mshr miss rate for overall accesses
system.l2.overall_mshr_miss_rate::.cpu.data     0.182814                       # mshr miss rate for overall accesses
system.l2.overall_mshr_miss_rate::total      0.183351                       # mshr miss rate for overall accesses
system.l2.demand_avg_mshr_miss_latency::.cpu.inst 68131.381381                       # average overall mshr miss latency
system.l2.demand_avg_mshr_miss_latency::.cpu.data 72264.379023                       # average overall mshr miss latency
system.l2.demand_avg_mshr_miss_latency::total 72249.185857                       # average overall mshr miss latency
system.l2.overall_avg_mshr_miss_latency::.cpu.inst 68131.381381                       # average overall mshr miss latency
system.l2.overall_avg_mshr_miss_latency::.cpu.data 72264.379023                       # average overall mshr miss latency
system.l2.overall_avg_mshr_miss_latency::total 72249.185857                       # average overall mshr miss latency
system.l2.replacements                         115713                       # number of replacements
system.l2.WritebackDirty_hits::.writebacks       927572                       # number of WritebackDirty hits
system.l2.WritebackDirty_hits::total           927572                       # number of WritebackDirty hits
system.l2.WritebackDirty_accesses::.writebacks       927572                       # number of WritebackDirty accesses(hits+misses)
system.l2.WritebackDirty_accesses::total       927572                       # number of WritebackDirty accesses(hits+misses)
system.l2.WritebackClean_hits::.writebacks          223                       # number of WritebackClean hits
system.l2.WritebackClean_hits::total              223                       # number of WritebackClean hits
system.l2.WritebackClean_accesses::.writebacks          223                       # number of WritebackClean accesses(hits+misses)
system.l2.WritebackClean_accesses::total          223                       # number of WritebackClean accesses(hits+misses)
system.l2.ReadExReq_hits::.cpu.data            256565                       # number of ReadExReq hits
system.l2.ReadExReq_hits::total                256565                       # number of ReadExReq hits
system.l2.ReadExReq_misses::.cpu.data          127715                       # number of ReadExReq misses
system.l2.ReadExReq_misses::total              127715                       # number of ReadExReq misses
system.l2.ReadExReq_miss_latency::.cpu.data  10801072000                       # number of ReadExReq miss cycles
system.l2.ReadExReq_miss_latency::total   10801072000                       # number of ReadExReq miss cycles
system.l2.ReadExReq_accesses::.cpu.data        384280                       # number of ReadExReq accesses(hits+misses)
system.l2.ReadExReq_accesses::total            384280                       # number of ReadExReq accesses(hits+misses)
system.l2.ReadExReq_miss_rate::.cpu.data     0.332349                       # miss rate for ReadExReq accesses
system.l2.ReadExReq_miss_rate::total         0.332349                       # miss rate for ReadExReq accesses
system.l2.ReadExReq_avg_miss_latency::.cpu.data 84571.679129                       # average ReadExReq miss latency
system.l2.ReadExReq_avg_miss_latency::total 84571.679129                       # average ReadExReq miss latency
system.l2.ReadExReq_mshr_misses::.cpu.data       127715                       # number of ReadExReq MSHR misses
system.l2.ReadExReq_mshr_misses::total         127715                       # number of ReadExReq MSHR misses
system.l2.ReadExReq_mshr_miss_latency::.cpu.data   9523922000                       # number of ReadExReq MSHR miss cycles
system.l2.ReadExReq_mshr_miss_latency::total   9523922000                       # number of ReadExReq MSHR miss cycles
system.l2.ReadExReq_mshr_miss_rate::.cpu.data     0.332349                       # mshr miss rate for ReadExReq accesses
system.l2.ReadExReq_mshr_miss_rate::total     0.332349                       # mshr miss rate for ReadExReq accesses
system.l2.ReadExReq_avg_mshr_miss_latency::.cpu.data 74571.679129                       # average ReadExReq mshr miss latency
system.l2.ReadExReq_avg_mshr_miss_latency::total 74571.679129                       # average ReadExReq mshr miss latency
system.l2.ReadCleanReq_hits::.cpu.inst             72                       # number of ReadCleanReq hits
system.l2.ReadCleanReq_hits::total                 72                       # number of ReadCleanReq hits
system.l2.ReadCleanReq_misses::.cpu.inst          666                       # number of ReadCleanReq misses
system.l2.ReadCleanReq_misses::total              666                       # number of ReadCleanReq misses
system.l2.ReadCleanReq_miss_latency::.cpu.inst     52035500                       # number of ReadCleanReq miss cycles
system.l2.ReadCleanReq_miss_latency::total     52035500                       # number of ReadCleanReq miss cycles
system.l2.ReadCleanReq_accesses::.cpu.inst          738                       # number of ReadCleanReq accesses(hits+misses)
system.l2.ReadCleanReq_accesses::total            738                       # number of ReadCleanReq accesses(hits+misses)
system.l2.ReadCleanReq_miss_rate::.cpu.inst     0.902439                       # miss rate for ReadCleanReq accesses
system.l2.ReadCleanReq_miss_rate::total      0.902439                       # miss rate for ReadCleanReq accesses
system.l2.ReadCleanReq_avg_miss_latency::.cpu.inst 78131.381381                       # average ReadCleanReq miss latency
system.l2.ReadCleanReq_avg_miss_latency::total 78131.381381                       # average ReadCleanReq miss latency
system.l2.ReadCleanReq_mshr_misses::.cpu.inst          666                       # number of ReadCleanReq MSHR misses
system.l2.ReadCleanReq_mshr_misses::total          666                       # number of ReadCleanReq MSHR misses
system.l2.ReadCleanReq_mshr_miss_latency::.cpu.inst     45375500                       # number of ReadCleanReq MSHR miss cycles
system.l2.ReadCleanReq_mshr_miss_latency::total     45375500                       # number of ReadCleanReq MSHR miss cycles
system.l2.ReadCleanReq_mshr_miss_rate::.cpu.inst     0.902439                       # mshr miss rate for ReadCleanReq accesses
system.l2.ReadCleanReq_mshr_miss_rate::total     0.902439                       # mshr miss rate for ReadCleanReq accesses
system.l2.ReadCleanReq_avg_mshr_miss_latency::.cpu.inst 68131.381381                       # average ReadCleanReq mshr miss latency
system.l2.ReadCleanReq_avg_mshr_miss_latency::total 68131.381381                       # average ReadCleanReq mshr miss latency
system.l2.ReadSharedReq_hits::.cpu.data        550299                       # number of ReadSharedReq hits
system.l2.ReadSharedReq_hits::total            550299                       # number of ReadSharedReq hits
system.l2.ReadSharedReq_misses::.cpu.data        52797                       # number of ReadSharedReq misses
system.l2.ReadSharedReq_misses::total           52797                       # number of ReadSharedReq misses
system.l2.ReadSharedReq_miss_latency::.cpu.data   4048519000                       # number of ReadSharedReq miss cycles
system.l2.ReadSharedReq_miss_latency::total   4048519000                       # number of ReadSharedReq miss cycles
system.l2.ReadSharedReq_accesses::.cpu.data       603096                       # number of ReadSharedReq accesses(hits+misses)
system.l2.ReadSharedReq_accesses::total        603096                       # number of ReadSharedReq accesses(hits+misses)
system.l2.ReadSharedReq_miss_rate::.cpu.data     0.087543                       # miss rate for ReadSharedReq accesses
system.l2.ReadSharedReq_miss_rate::total     0.087543                       # miss rate for ReadSharedReq accesses
system.l2.ReadSharedReq_avg_miss_latency::.cpu.data 76680.853079                       # average ReadSharedReq miss latency
system.l2.ReadSharedReq_avg_miss_latency::total 76680.853079                       # average ReadSharedReq miss latency
system.l2.ReadSharedReq_mshr_hits::.cpu.data            6                       # number of ReadSharedReq MSHR hits
system.l2.ReadSharedReq_mshr_hits::total            6                       # number of ReadSharedReq MSHR hits
system.l2.ReadSharedReq_mshr_misses::.cpu.data        52791                       # number of ReadSharedReq MSHR misses
system.l2.ReadSharedReq_mshr_misses::total        52791                       # number of ReadSharedReq MSHR misses
system.l2.ReadSharedReq_mshr_miss_latency::.cpu.data   3520232000                       # number of ReadSharedReq MSHR miss cycles
system.l2.ReadSharedReq_mshr_miss_latency::total   3520232000                       # number of ReadSharedReq MSHR miss cycles
system.l2.ReadSharedReq_mshr_miss_rate::.cpu.data     0.087533                       # mshr miss rate for ReadSharedReq accesses
system.l2.ReadSharedReq_mshr_miss_rate::total     0.087533                       # mshr miss rate for ReadSharedReq accesses
system.l2.ReadSharedReq_avg_mshr_miss_latency::.cpu.data 66682.426929                       # average ReadSharedReq mshr miss latency
system.l2.ReadSharedReq_avg_mshr_miss_latency::total 66682.426929                       # average ReadSharedReq mshr miss latency
system.l2.power_state.pwrStateResidencyTicks::UNDEFINED  85132797000                       # Cumulative time (in ticks) in various power states
system.l2.tags.tagsinuse                 63244.097599                       # Cycle average of tags in use
system.l2.tags.total_refs                     1973910                       # Total number of references to valid blocks.
system.l2.tags.sampled_refs                    181249                       # Sample count of references to valid blocks.
system.l2.tags.avg_refs                     10.890598                       # Average number of references to valid blocks.
system.l2.tags.warmup_cycle                     77000                       # Cycle when the warmup percentage was hit.
system.l2.tags.occ_blocks::.writebacks      40.799572                       # Average occupied blocks per requestor
system.l2.tags.occ_blocks::.cpu.inst       123.156926                       # Average occupied blocks per requestor
system.l2.tags.occ_blocks::.cpu.data     63080.141101                       # Average occupied blocks per requestor
system.l2.tags.occ_percent::.writebacks      0.000623                       # Average percentage of cache occupancy
system.l2.tags.occ_percent::.cpu.inst        0.001879                       # Average percentage of cache occupancy
system.l2.tags.occ_percent::.cpu.data        0.962527                       # Average percentage of cache occupancy
system.l2.tags.occ_percent::total            0.965028                       # Average percentage of cache occupancy
system.l2.tags.occ_task_id_blocks::1024         65536                       # Occupied blocks per task id
system.l2.tags.age_task_id_blocks_1024::1            5                       # Occupied blocks per task id
system.l2.tags.age_task_id_blocks_1024::2            7                       # Occupied blocks per task id
system.l2.tags.age_task_id_blocks_1024::3         4794                       # Occupied blocks per task id
system.l2.tags.age_task_id_blocks_1024::4        60730                       # Occupied blocks per task id
system.l2.tags.occ_task_id_percent::1024            1                       # Percentage of cache occupancy per task id
system.l2.tags.tag_accesses                   4129081                       # Number of tag accesses
system.l2.tags.data_accesses                  4129081                       # Number of data accesses
system.l2.tags.power_state.pwrStateResidencyTicks::UNDEFINED  85132797000                       # Cumulative time (in ticks) in various power states
system.mem_ctrls.avgPriority_.writebacks::samples     63409.00                       # Average QoS priority value for accepted requests
system.mem_ctrls.avgPriority_.cpu.inst::samples       666.00                       # Average QoS priority value for accepted requests
system.mem_ctrls.avgPriority_.cpu.data::samples    180500.00                       # Average QoS priority value for accepted requests
system.mem_ctrls.priorityMinLatency      0.000000018750                       # per QoS priority minimum request to response latency (s)
system.mem_ctrls.priorityMaxLatency      0.006748154750                       # per QoS priority maximum request to response latency (s)
system.mem_ctrls.numReadWriteTurnArounds         3821                       # Number of turnarounds from READ to WRITE
system.mem_ctrls.numWriteReadTurnArounds         3821                       # Number of turnarounds from WRITE to READ
system.mem_ctrls.numStayReadState              440827                       # Number of times bus staying in READ state
system.mem_ctrls.numStayWriteState              59603                       # Number of times bus staying in WRITE state
system.mem_ctrls.readReqs                      181172                       # Number of read requests accepted
system.mem_ctrls.writeReqs                      63409                       # Number of write requests accepted
system.mem_ctrls.readBursts                    181172                       # Number of controller read bursts, including those serviced by the write queue
system.mem_ctrls.writeBursts                    63409                       # Number of controller write bursts, including those merged in the write queue
system.mem_ctrls.servicedByWrQ                      6                       # Number of controller read bursts serviced by the write queue
system.mem_ctrls.mergedWrBursts                     0                       # Number of controller write bursts merged with an existing one
system.mem_ctrls.neitherReadNorWriteReqs            0                       # Number of requests that are neither read nor write
system.mem_ctrls.avgRdQLen                       1.07                       # Average read queue length when enqueuing
system.mem_ctrls.avgWrQLen                      24.44                       # Average write queue length when enqueuing
system.mem_ctrls.numRdRetry                         0                       # Number of times read queue was full causing retry
system.mem_ctrls.numWrRetry                         0                       # Number of times write queue was full causing retry
system.mem_ctrls.readPktSize::0                     0                       # Read request sizes (log2)
system.mem_ctrls.readPktSize::1                     0                       # Read request sizes (log2)
system.mem_ctrls.readPktSize::2                     0                       # Read request sizes (log2)
system.mem_ctrls.readPktSize::3                     0                       # Read request sizes (log2)
system.mem_ctrls.readPktSize::4                     0                       # Read request sizes (log2)
system.mem_ctrls.readPktSize::5                     0                       # Read request sizes (log2)
system.mem_ctrls.readPktSize::6                181172                       # Read request sizes (log2)
system.mem_ctrls.writePktSize::0                    0                       # Write request sizes (log2)
system.mem_ctrls.writePktSize::1                    0                       # Write request sizes (log2)
system.mem_ctrls.writePktSize::2                    0                       # Write request sizes (log2)
system.mem_ctrls.writePktSize::3                    0                       # Write request sizes (log2)
system.mem_ctrls.writePktSize::4                    0                       # Write request sizes (log2)
system.mem_ctrls.writePktSize::5                    0                       # Write request sizes (log2)
system.mem_ctrls.writePktSize::6                63409                       # Write request sizes (log2)
system.mem_ctrls.rdQLenPdf::0                  122012                       # What read queue length does an incoming req see
system.mem_ctrls.rdQLenPdf::1                   56394                       # What read queue length does an incoming req see
system.mem_ctrls.rdQLenPdf::2                    2356                       # What read queue length does an incoming req see
system.mem_ctrls.rdQLenPdf::3                     403                       # What read queue length does an incoming req see
system.mem_ctrls.rdQLenPdf::4                       1                       # What read queue length does an incoming req see
system.mem_ctrls.rdQLenPdf::5                       0                       # What read queue length does an incoming req see
system.mem_ctrls.rdQLenPdf::6                       0                       # What read queue length does an incoming req see
system.mem_ctrls.rdQLenPdf::7                       0                       # What read queue length does an incoming req see
system.mem_ctrls.rdQLenPdf::8                       0                       # What read queue length does an incoming req see
system.mem_ctrls.rdQLenPdf::9                       0                       # What read queue length does an incoming req see
system.mem_ctrls.rdQLenPdf::10                      0                       # What read queue length does an incoming req see
system.mem_ctrls.rdQLenPdf::11                      0                       # What read queue length does an incoming req see
system.mem_ctrls.rdQLenPdf::12                      0                       # What read queue length does an incoming req see
[...]
system.mem_ctrls.dram.bw_write::.writebacks     47668773                       # Write bandwidth from this memory (bytes/s)
system.mem_ctrls.dram.bw_write::total        47668773                       # Write bandwidth from this memory (bytes/s)
system.mem_ctrls.dram.bw_total::.writebacks     47668773                       # Total bandwidth to/from this memory (bytes/s)
system.mem_ctrls.dram.bw_total::.cpu.inst       500677                       # Total bandwidth to/from this memory (bytes/s)
system.mem_ctrls.dram.bw_total::.cpu.data    135698396                       # Total bandwidth to/from this memory (bytes/s)
system.mem_ctrls.dram.bw_total::total       183867846                       # Total bandwidth to/from this memory (bytes/s)
system.mem_ctrls.dram.readBursts               181166                       # Number of DRAM read bursts
system.mem_ctrls.dram.writeBursts               63381                       # Number of DRAM write bursts
system.mem_ctrls.dram.perBankRdBursts::0        11448                       # Per bank write bursts
system.mem_ctrls.dram.perBankRdBursts::1        11471                       # Per bank write bursts
system.mem_ctrls.dram.perBankRdBursts::2        11431                       # Per bank write bursts
system.mem_ctrls.dram.perBankRdBursts::3        11476                       # Per bank write bursts
system.mem_ctrls.dram.perBankRdBursts::4        11402                       # Per bank write bursts
system.mem_ctrls.dram.perBankRdBursts::5        11284                       # Per bank write bursts
system.mem_ctrls.dram.perBankRdBursts::6        11275                       # Per bank write bursts
system.mem_ctrls.dram.perBankRdBursts::7        11157                       # Per bank write bursts
system.mem_ctrls.dram.perBankRdBursts::8        11352                       # Per bank write bursts
system.mem_ctrls.dram.perBankRdBursts::9        11062                       # Per bank write bursts
system.mem_ctrls.dram.perBankRdBursts::10        11334                       # Per bank write bursts
system.mem_ctrls.dram.perBankRdBursts::11        11381                       # Per bank write bursts
system.mem_ctrls.dram.perBankRdBursts::12        11284                       # Per bank write bursts
system.mem_ctrls.dram.perBankRdBursts::13        11374                       # Per bank write bursts
system.mem_ctrls.dram.perBankRdBursts::14        11259                       # Per bank write bursts
system.mem_ctrls.dram.perBankRdBursts::15        11176                       # Per bank write bursts
system.mem_ctrls.dram.perBankWrBursts::0         3942                       # Per bank write bursts
system.mem_ctrls.dram.perBankWrBursts::1         4133                       # Per bank write bursts
system.mem_ctrls.dram.perBankWrBursts::2         4099                       # Per bank write bursts
system.mem_ctrls.dram.perBankWrBursts::3         4062                       # Per bank write bursts
system.mem_ctrls.dram.perBankWrBursts::4         4076                       # Per bank write bursts
system.mem_ctrls.dram.perBankWrBursts::5         4032                       # Per bank write bursts
system.mem_ctrls.dram.perBankWrBursts::6         4074                       # Per bank write bursts
system.mem_ctrls.dram.perBankWrBursts::7         3938                       # Per bank write bursts
system.mem_ctrls.dram.perBankWrBursts::8         3962                       # Per bank write bursts
system.mem_ctrls.dram.perBankWrBursts::9         3775                       # Per bank write bursts
system.mem_ctrls.dram.perBankWrBursts::10         3890                       # Per bank write bursts
system.mem_ctrls.dram.perBankWrBursts::11         3899                       # Per bank write bursts
system.mem_ctrls.dram.perBankWrBursts::12         3864                       # Per bank write bursts
system.mem_ctrls.dram.perBankWrBursts::13         3885                       # Per bank write bursts
system.mem_ctrls.dram.perBankWrBursts::14         3882                       # Per bank write bursts
system.mem_ctrls.dram.perBankWrBursts::15         3868                       # Per bank write bursts
system.mem_ctrls.dram.totQLat              2224746750                       # Total ticks spent queuing
system.mem_ctrls.dram.totBusLat             905830000                       # Total ticks spent in databus transfers
system.mem_ctrls.dram.totMemAccLat         5621609250                       # Total ticks spent from burst creation until serviced by the DRAM
system.mem_ctrls.dram.avgQLat                12280.16                       # Average queueing delay per DRAM burst
system.mem_ctrls.dram.avgBusLat               5000.00                       # Average bus latency per DRAM burst
system.mem_ctrls.dram.avgMemAccLat           31030.16                       # Average memory access latency per DRAM burst
system.mem_ctrls.dram.readRowHits              132300                       # Number of row buffer hits during reads
system.mem_ctrls.dram.writeRowHits              44400                       # Number of row buffer hits during writes
system.mem_ctrls.dram.readRowHitRate            73.03                       # Row buffer hit rate for reads
system.mem_ctrls.dram.writeRowHitRate           70.05                       # Row buffer hit rate for writes
system.mem_ctrls.dram.bytesPerActivate::samples        67847                       # Bytes accessed per row activation
system.mem_ctrls.dram.bytesPerActivate::mean   230.680914                       # Bytes accessed per row activation
system.mem_ctrls.dram.bytesPerActivate::gmean   127.671770                       # Bytes accessed per row activation
system.mem_ctrls.dram.bytesPerActivate::stdev   288.922645                       # Bytes accessed per row activation
system.mem_ctrls.dram.bytesPerActivate::0-127        41704     61.47%     61.47% # Bytes accessed per row activation
system.mem_ctrls.dram.bytesPerActivate::128-255         7992     11.78%     73.25% # Bytes accessed per row activation
system.mem_ctrls.dram.bytesPerActivate::256-383         1281      1.89%     75.14% # Bytes accessed per row activation
system.mem_ctrls.dram.bytesPerActivate::384-511          998      1.47%     76.61% # Bytes accessed per row activation
system.mem_ctrls.dram.bytesPerActivate::512-639         9805     14.45%     91.06% # Bytes accessed per row activation
system.mem_ctrls.dram.bytesPerActivate::640-767          292      0.43%     91.49% # Bytes accessed per row activation
system.mem_ctrls.dram.bytesPerActivate::768-895          280      0.41%     91.90% # Bytes accessed per row activation
system.mem_ctrls.dram.bytesPerActivate::896-1023          291      0.43%     92.33% # Bytes accessed per row activation
system.mem_ctrls.dram.bytesPerActivate::1024-1151         5204      7.67%    100.00% # Bytes accessed per row activation
system.mem_ctrls.dram.bytesPerActivate::total        67847                       # Bytes accessed per row activation
system.mem_ctrls.dram.bytesRead              11594624                       # Total number of bytes read from DRAM
system.mem_ctrls.dram.bytesWritten            4056384                       # Total number of bytes written to DRAM
system.mem_ctrls.dram.avgRdBW              136.194562                       # Average DRAM read bandwidth in MiBytes/s
system.mem_ctrls.dram.avgWrBW               47.647724                       # Average DRAM write bandwidth in MiBytes/s
system.mem_ctrls.dram.peakBW                 12800.00                       # Theoretical peak bandwidth in MiByte/s
system.mem_ctrls.dram.busUtil                    1.44                       # Data bus utilization in percentage
system.mem_ctrls.dram.busUtilRead                1.06                       # Data bus utilization in percentage for reads
system.mem_ctrls.dram.busUtilWrite               0.37                       # Data bus utilization in percentage for writes
system.mem_ctrls.dram.pageHitRate               72.26                       # Row buffer hit rate, read and write combined
system.mem_ctrls.dram.power_state.pwrStateResidencyTicks::UNDEFINED  85132797000                       # Cumulative time (in ticks) in various power states
system.mem_ctrls.dram.rank0.actEnergy       244944840                       # Energy for activate commands per rank (pJ)
system.mem_ctrls.dram.rank0.preEnergy       130191270                       # Energy for precharge commands per rank (pJ)
system.mem_ctrls.dram.rank0.readEnergy      649340160                       # Energy for read commands per rank (pJ)
system.mem_ctrls.dram.rank0.writeEnergy     168898320                       # Energy for write commands per rank (pJ)
system.mem_ctrls.dram.rank0.refreshEnergy 6719859120.000001                       # Energy for refresh commands per rank (pJ)
system.mem_ctrls.dram.rank0.actBackEnergy  20186938170                       # Energy for active background per rank (pJ)
system.mem_ctrls.dram.rank0.preBackEnergy  15691467360                       # Energy for precharge background per rank (pJ)
system.mem_ctrls.dram.rank0.actPowerDownEnergy            0                       # Energy for active power-down per rank (pJ)
system.mem_ctrls.dram.rank0.prePowerDownEnergy            0                       # Energy for precharge power-down per rank (pJ)
system.mem_ctrls.dram.rank0.selfRefreshEnergy            0                       # Energy for self refresh per rank (pJ)
system.mem_ctrls.dram.rank0.totalEnergy   43791639240                       # Total energy per rank (pJ)
system.mem_ctrls.dram.rank0.averagePower   514.392112                       # Core power per rank (mW)
system.mem_ctrls.dram.rank0.totalIdleTime            0                       # Total Idle time Per DRAM Rank
system.mem_ctrls.dram.rank0.pwrStateTime::IDLE  40591860000                       # Time in different power states
system.mem_ctrls.dram.rank0.pwrStateTime::REF   2842580000                       # Time in different power states
system.mem_ctrls.dram.rank0.pwrStateTime::SREF            0                       # Time in different power states
system.mem_ctrls.dram.rank0.pwrStateTime::PRE_PDN            0                       # Time in different power states
system.mem_ctrls.dram.rank0.pwrStateTime::ACT  41698357000                       # Time in different power states
system.mem_ctrls.dram.rank0.pwrStateTime::ACT_PDN            0                       # Time in different power states
system.mem_ctrls.dram.rank1.actEnergy       239482740                       # Energy for activate commands per rank (pJ)
system.mem_ctrls.dram.rank1.preEnergy       127288095                       # Energy for precharge commands per rank (pJ)
system.mem_ctrls.dram.rank1.readEnergy      644185080                       # Energy for read commands per rank (pJ)
system.mem_ctrls.dram.rank1.writeEnergy     161950500                       # Energy for write commands per rank (pJ)
system.mem_ctrls.dram.rank1.refreshEnergy 6719859120.000001                       # Energy for refresh commands per rank (pJ)
system.mem_ctrls.dram.rank1.actBackEnergy  19732514790                       # Energy for active background per rank (pJ)
system.mem_ctrls.dram.rank1.preBackEnergy  16074139680                       # Energy for precharge background per rank (pJ)
system.mem_ctrls.dram.rank1.actPowerDownEnergy            0                       # Energy for active power-down per rank (pJ)
system.mem_ctrls.dram.rank1.prePowerDownEnergy            0                       # Energy for precharge power-down per rank (pJ)
system.mem_ctrls.dram.rank1.selfRefreshEnergy            0                       # Energy for self refresh per rank (pJ)
system.mem_ctrls.dram.rank1.totalEnergy   43699420005                       # Total energy per rank (pJ)
system.mem_ctrls.dram.rank1.averagePower   513.308872                       # Core power per rank (mW)
system.mem_ctrls.dram.rank1.totalIdleTime            0                       # Total Idle time Per DRAM Rank
system.mem_ctrls.dram.rank1.pwrStateTime::IDLE  41592152500                       # Time in different power states
system.mem_ctrls.dram.rank1.pwrStateTime::REF   2842580000                       # Time in different power states
system.mem_ctrls.dram.rank1.pwrStateTime::SREF            0                       # Time in different power states
system.mem_ctrls.dram.rank1.pwrStateTime::PRE_PDN            0                       # Time in different power states
system.mem_ctrls.dram.rank1.pwrStateTime::ACT  40698064500                       # Time in different power states
system.mem_ctrls.dram.rank1.pwrStateTime::ACT_PDN            0                       # Time in different power states
system.mem_ctrls.power_state.pwrStateResidencyTicks::UNDEFINED  85132797000                       # Cumulative time (in ticks) in various power states
system.membus.trans_dist::ReadResp              53457                       # Transaction distribution
system.membus.trans_dist::WritebackDirty        63409                       # Transaction distribution
system.membus.trans_dist::CleanEvict            51845                       # Transaction distribution
system.membus.trans_dist::ReadExReq            127715                       # Transaction distribution
system.membus.trans_dist::ReadExResp           127715                       # Transaction distribution
system.membus.trans_dist::ReadSharedReq         53457                       # Transaction distribution
system.membus.pkt_count_system.l2.mem_side_port::system.mem_ctrls.port       477598                       # Packet count per connected requestor and responder (bytes)
system.membus.pkt_count::total                 477598                       # Packet count per connected requestor and responder (bytes)
system.membus.pkt_size_system.l2.mem_side_port::system.mem_ctrls.port     15653184                       # Cumulative packet size per connected requestor and responder (bytes)
system.membus.pkt_size::total                15653184                       # Cumulative packet size per connected requestor and responder (bytes)
system.membus.snoops                                0                       # Total snoops (count)
system.membus.snoopTraffic                          0                       # Total snoop traffic (bytes)
system.membus.snoop_fanout::samples            181172                       # Request fanout histogram
system.membus.snoop_fanout::mean                    0                       # Request fanout histogram
system.membus.snoop_fanout::stdev                   0                       # Request fanout histogram
system.membus.snoop_fanout::underflows              0      0.00%      0.00% # Request fanout histogram
system.membus.snoop_fanout::0                  181172    100.00%    100.00% # Request fanout histogram
system.membus.snoop_fanout::1                       0      0.00%    100.00% # Request fanout histogram
system.membus.snoop_fanout::overflows               0      0.00%    100.00% # Request fanout histogram
system.membus.snoop_fanout::min_value               0                       # Request fanout histogram
system.membus.snoop_fanout::max_value               0                       # Request fanout histogram
system.membus.snoop_fanout::total              181172                       # Request fanout histogram
system.membus.power_state.pwrStateResidencyTicks::UNDEFINED  85132797000                       # Cumulative time (in ticks) in various power states
system.membus.reqLayer0.occupancy           582856000                       # Layer occupancy (ticks)
system.membus.reqLayer0.utilization               0.7                       # Layer utilization (%)
system.membus.respLayer1.occupancy          973765000                       # Layer occupancy (ticks)
system.membus.respLayer1.utilization              1.1                       # Layer utilization (%)
system.tol2bus.trans_dist::ReadResp            603834                       # Transaction distribution
system.tol2bus.trans_dist::WritebackDirty       990981                       # Transaction distribution
system.tol2bus.trans_dist::WritebackClean          233                       # Transaction distribution
system.tol2bus.trans_dist::CleanEvict          111596                       # Transaction distribution
system.tol2bus.trans_dist::ReadExReq           384280                       # Transaction distribution
system.tol2bus.trans_dist::ReadExResp          384280                       # Transaction distribution
system.tol2bus.trans_dist::ReadCleanReq           738                       # Transaction distribution
system.tol2bus.trans_dist::ReadSharedReq       603096                       # Transaction distribution
system.tol2bus.pkt_count_system.cpu.icache.mem_side_port::system.l2.cpu_side_port         1709                       # Packet count per connected requestor and responder (bytes)
system.tol2bus.pkt_count_system.cpu.dcache.mem_side_port::system.l2.cpu_side_port      2961616                       # Packet count per connected requestor and responder (bytes)
system.tol2bus.pkt_count::total               2963325                       # Packet count per connected requestor and responder (bytes)
system.tol2bus.pkt_size_system.cpu.icache.mem_side_port::system.l2.cpu_side_port        62144                       # Cumulative packet size per connected requestor and responder (bytes)
system.tol2bus.pkt_size_system.cpu.dcache.mem_side_port::system.l2.cpu_side_port    122556672                       # Cumulative packet size per connected requestor and responder (bytes)
system.tol2bus.pkt_size::total              122618816                       # Cumulative packet size per connected requestor and responder (bytes)
system.tol2bus.snoops                          115713                       # Total snoops (count)
system.tol2bus.snoopTraffic                   4058176                       # Total snoop traffic (bytes)
system.tol2bus.snoop_fanout::samples          1103827                       # Request fanout histogram
system.tol2bus.snoop_fanout::mean            0.001590                       # Request fanout histogram
system.tol2bus.snoop_fanout::stdev           0.039842                       # Request fanout histogram
system.tol2bus.snoop_fanout::underflows             0      0.00%      0.00% # Request fanout histogram
system.tol2bus.snoop_fanout::0                1102072     99.84%     99.84% # Request fanout histogram
system.tol2bus.snoop_fanout::1                   1755      0.16%    100.00% # Request fanout histogram
system.tol2bus.snoop_fanout::2                      0      0.00%    100.00% # Request fanout histogram
system.tol2bus.snoop_fanout::overflows              0      0.00%    100.00% # Request fanout histogram
system.tol2bus.snoop_fanout::min_value              0                       # Request fanout histogram
system.tol2bus.snoop_fanout::max_value              1                       # Request fanout histogram
system.tol2bus.snoop_fanout::total            1103827                       # Request fanout histogram
system.tol2bus.power_state.pwrStateResidencyTicks::UNDEFINED  85132797000                       # Cumulative time (in ticks) in various power states
system.tol2bus.reqLayer0.occupancy         1915410500                       # Layer occupancy (ticks)
system.tol2bus.reqLayer0.utilization              2.2                       # Layer utilization (%)
system.tol2bus.respLayer0.occupancy           1107000                       # Layer occupancy (ticks)
system.tol2bus.respLayer0.utilization             0.0                       # Layer utilization (%)
system.tol2bus.respLayer1.occupancy        1481066994                       # Layer occupancy (ticks)
system.tol2bus.respLayer1.utilization             1.7                       # Layer utilization (%)
system.voltage_domain.voltage                       1                       # Voltage in Volts

---------- End Simulation Statistics   ----------
