
---------- Begin Simulation Statistics ----------
final_tick                               705448977000                       # Number of ticks from beginning of simulation (restored from checkpoints and never reset)
host_inst_rate                                  73256                       # Simulator instruction rate (inst/s)
host_mem_usage                                 663952                       # Number of bytes of host memory used
host_op_rate                                   134952                       # Simulator op (including micro ops) rate (op/s)
host_seconds                                  1365.07                       # Real time elapsed on the host
host_tick_rate                              516785738                       # Simulator tick rate (ticks/s)
sim_freq                                 1000000000000                       # Frequency of simulated ticks
sim_insts                                   100000001                       # Number of instructions simulated
sim_ops                                     184218784                       # Number of ops (including micro ops) simulated
sim_seconds                                  0.705449                       # Number of seconds simulated
sim_ticks                                705448977000                       # Number of ticks simulated
system.cpu.committedInsts                   100000001                       # Number of instructions committed
system.cpu.committedOps                     184218784                       # Number of ops (including micro ops) committed
system.cpu.cpi                               7.054490                       # CPI: cycles per instruction
system.cpu.discardedOps                          4408                       # Number of ops (including micro ops) which were discarded before commit
system.cpu.idleCycles                       483760898                       # Total number of cycles that the object has spent stopped
system.cpu.ipc                               0.141754                       # IPC: instructions per cycle
system.cpu.numCycles                        705448977                       # number of cpu cycles simulated
system.cpu.numFetchSuspends                         0                       # Number of times Execute suspended instruction fetching
system.cpu.numWorkItemsCompleted                    0                       # number of work items this cpu completed
system.cpu.numWorkItemsStarted                      0                       # number of work items this cpu started
system.cpu.op_class_0::No_OpClass                   0      0.00%      0.00% # Class of committed instruction
system.cpu.op_class_0::IntAlu                97640468     53.00%     53.00% # Class of committed instruction
system.cpu.op_class_0::IntMult                 114702      0.06%     53.06% # Class of committed instruction
system.cpu.op_class_0::IntDiv                       0      0.00%     53.06% # Class of committed instruction
system.cpu.op_class_0::FloatAdd                     0      0.00%     53.06% # Class of committed instruction
system.cpu.op_class_0::FloatCmp                     0      0.00%     53.06% # Class of committed instruction
system.cpu.op_class_0::FloatCvt                     0      0.00%     53.06% # Class of committed instruction
system.cpu.op_class_0::FloatMult                    0      0.00%     53.06% # Class of committed instruction
system.cpu.op_class_0::FloatMultAcc                 0      0.00%     53.06% # Class of committed instruction
system.cpu.op_class_0::FloatDiv                     0      0.00%     53.06% # Class of committed instruction
system.cpu.op_class_0::FloatMisc                    0      0.00%     53.06% # Class of committed instruction
system.cpu.op_class_0::FloatSqrt                    0      0.00%     53.06% # Class of committed instruction
system.cpu.op_class_0::SimdAdd                      8      0.00%     53.06% # Class of committed instruction
system.cpu.op_class_0::SimdAddAcc                   0      0.00%     53.06% # Class of committed instruction
system.cpu.op_class_0::SimdAlu                     10      0.00%     53.06% # Class of committed instruction
system.cpu.op_class_0::SimdCmp                      8      0.00%     53.06% # Class of committed instruction
system.cpu.op_class_0::SimdCvt                      0      0.00%     53.06% # Class of committed instruction
system.cpu.op_class_0::SimdMisc                     1      0.00%     53.06% # Class of committed instruction
system.cpu.op_class_0::SimdMult                     0      0.00%     53.06% # Class of committed instruction
system.cpu.op_class_0::SimdMultAcc                  0      0.00%     53.06% # Class of committed instruction
system.cpu.op_class_0::SimdShift                    0      0.00%     53.06% # Class of committed instruction
system.cpu.op_class_0::SimdShiftAcc                 0      0.00%     53.06% # Class of committed instruction
system.cpu.op_class_0::SimdDiv                      0      0.00%     53.06% # Class of committed instruction
system.cpu.op_class_0::SimdSqrt                     0      0.00%     53.06% # Class of committed instruction
system.cpu.op_class_0::SimdFloatAdd                 0      0.00%     53.06% # Class of committed instruction
system.cpu.op_class_0::SimdFloatAlu                 0      0.00%     53.06% # Class of committed instruction
system.cpu.op_class_0::SimdFloatCmp                 0      0.00%     53.06% # Class of committed instruction
system.cpu.op_class_0::SimdFloatCvt                 0      0.00%     53.06% # Class of committed instruction
system.cpu.op_class_0::SimdFloatDiv                 0      0.00%     53.06% # Class of committed instruction
system.cpu.op_class_0::SimdFloatMisc               24      0.00%     53.06% # Class of committed instruction
system.cpu.op_class_0::SimdFloatMult                0      0.00%     53.06% # Class of committed instruction
system.cpu.op_class_0::SimdFloatMultAcc             0      0.00%     53.06% # Class of committed instruction
system.cpu.op_class_0::SimdFloatSqrt                0      0.00%     53.06% # Class of committed instruction
system.cpu.op_class_0::SimdReduceAdd                0      0.00%     53.06% # Class of committed instruction
system.cpu.op_class_0::SimdReduceAlu                0      0.00%     53.06% # Class of committed instruction
system.cpu.op_class_0::SimdReduceCmp                0      0.00%     53.06% # Class of committed instruction
system.cpu.op_class_0::SimdFloatReduceAdd            0      0.00%     53.06% # Class of committed instruction
system.cpu.op_class_0::SimdFloatReduceCmp            0      0.00%     53.06% # Class of committed instruction
system.cpu.op_class_0::SimdAes                      0      0.00%     53.06% # Class of committed instruction
system.cpu.op_class_0::SimdAesMix                   0      0.00%     53.06% # Class of committed instruction
system.cpu.op_class_0::SimdSha1Hash                 0      0.00%     53.06% # Class of committed instruction
system.cpu.op_class_0::SimdSha1Hash2                0      0.00%     53.06% # Class of committed instruction
system.cpu.op_class_0::SimdSha256Hash               0      0.00%     53.06% # Class of committed instruction
system.cpu.op_class_0::SimdSha256Hash2              0      0.00%     53.06% # Class of committed instruction
system.cpu.op_class_0::SimdShaSigma2                0      0.00%     53.06% # Class of committed instruction
system.cpu.op_class_0::SimdShaSigma3                0      0.00%     53.06% # Class of committed instruction
system.cpu.op_class_0::SimdPredAlu                  0      0.00%     53.06% # Class of committed instruction
system.cpu.op_class_0::MemRead                2082677      1.13%     54.20% # Class of committed instruction
system.cpu.op_class_0::MemWrite              84380886     45.80%    100.00% # Class of committed instruction
system.cpu.op_class_0::FloatMemRead                 0      0.00%    100.00% # Class of committed instruction
system.cpu.op_class_0::FloatMemWrite                0      0.00%    100.00% # Class of committed instruction
system.cpu.op_class_0::IprAccess                    0      0.00%    100.00% # Class of committed instruction
system.cpu.op_class_0::InstPrefetch                 0      0.00%    100.00% # Class of committed instruction
system.cpu.op_class_0::total                184218784                       # Class of committed instruction
system.cpu.tickCycles                       221688079                       # Number of cycles that the object actually ticked
system.cpu.workload.numSyscalls                    19                       # Number of system calls
system.membus.snoop_filter.hit_multi_requests            0                       # Number of requests hitting in the snoop filter with multiple (>1) holders of the requested data.
system.membus.snoop_filter.hit_multi_snoops            0                       # Number of snoops hitting in the snoop filter with multiple (>1) holders of the requested data.
system.membus.snoop_filter.hit_single_requests      5230614                       # Number of requests hitting in the snoop filter with a single holder of the requested data.
system.membus.snoop_filter.hit_single_snoops            0                       # Number of snoops hitting in the snoop filter with a single holder of the requested data.
system.membus.snoop_filter.tot_requests      10494494                       # Total number of requests made to the snoop filter.
system.membus.snoop_filter.tot_snoops               0                       # Total number of snoops made to the snoop filter.
system.tol2bus.snoop_filter.hit_multi_requests          250                       # Number of requests hitting in the snoop filter with multiple (>1) holders of the requested data.
system.tol2bus.snoop_filter.hit_multi_snoops            0                       # Number of snoops hitting in the snoop filter with multiple (>1) holders of the requested data.
system.tol2bus.snoop_filter.hit_single_requests      5264761                       # Number of requests hitting in the snoop filter with a single holder of the requested data.
system.tol2bus.snoop_filter.hit_single_snoops          569                       # Number of snoops hitting in the snoop filter with a single holder of the requested data.
system.tol2bus.snoop_filter.tot_requests     10531056                       # Total number of requests made to the snoop filter.
system.tol2bus.snoop_filter.tot_snoops            569                       # Total number of snoops made to the snoop filter.
system.clk_domain.clock                          1000                       # Clock period in ticks
system.cpu.branchPred.lookups                10658230                       # Number of BP lookups
system.cpu.branchPred.condPredicted          10649999                       # Number of conditional branches predicted
system.cpu.branchPred.condIncorrect              1452                       # Number of conditional branches incorrect
system.cpu.branchPred.BTBLookups             10650211                       # Number of BTB lookups
system.cpu.branchPred.BTBHits                10648848                       # Number of BTB hits
system.cpu.branchPred.BTBHitPct             99.987202                       # BTB Hit Percentage
system.cpu.branchPred.RASUsed                    2712                       # Number of times the RAS was used to get a target.
system.cpu.branchPred.RASIncorrect                  1                       # Number of incorrect RAS predictions.
system.cpu.branchPred.indirectLookups             192                       # Number of indirect predictor lookups.
system.cpu.branchPred.indirectHits                 18                       # Number of indirect target hits.
system.cpu.branchPred.indirectMisses              174                       # Number of indirect misses.
system.cpu.branchPred.indirectMispredicted          105                       # Number of mispredicted indirect branches.
system.cpu.dcache.demand_hits::.cpu.data     75854438                       # number of demand (read+write) hits
system.cpu.dcache.demand_hits::total         75854438                       # number of demand (read+write) hits
system.cpu.dcache.overall_hits::.cpu.data     75854475                       # number of overall hits
system.cpu.dcache.overall_hits::total        75854475                       # number of overall hits
system.cpu.dcache.demand_misses::.cpu.data     10526173                       # number of demand (read+write) misses
system.cpu.dcache.demand_misses::total       10526173                       # number of demand (read+write) misses
system.cpu.dcache.overall_misses::.cpu.data     10526207                       # number of overall misses
system.cpu.dcache.overall_misses::total      10526207                       # number of overall misses
system.cpu.dcache.demand_miss_latency::.cpu.data 1109156486999                       # number of demand (read+write) miss cycles
system.cpu.dcache.demand_miss_latency::total 1109156486999                       # number of demand (read+write) miss cycles
system.cpu.dcache.overall_miss_latency::.cpu.data 1109156486999                       # number of overall miss cycles
system.cpu.dcache.overall_miss_latency::total 1109156486999                       # number of overall miss cycles
system.cpu.dcache.demand_accesses::.cpu.data     86380611                       # number of demand (read+write) accesses
system.cpu.dcache.demand_accesses::total     86380611                       # number of demand (read+write) accesses
system.cpu.dcache.overall_accesses::.cpu.data     86380682                       # number of overall (read+write) accesses
system.cpu.dcache.overall_accesses::total     86380682                       # number of overall (read+write) accesses
system.cpu.dcache.demand_miss_rate::.cpu.data     0.121858                       # miss rate for demand accesses
system.cpu.dcache.demand_miss_rate::total     0.121858                       # miss rate for demand accesses
system.cpu.dcache.overall_miss_rate::.cpu.data     0.121858                       # miss rate for overall accesses
system.cpu.dcache.overall_miss_rate::total     0.121858                       # miss rate for overall accesses
system.cpu.dcache.demand_avg_miss_latency::.cpu.data 105371.295627                       # average overall miss latency
system.cpu.dcache.demand_avg_miss_latency::total 105371.295627                       # average overall miss latency
system.cpu.dcache.overall_avg_miss_latency::.cpu.data 105370.955274                       # average overall miss latency
system.cpu.dcache.overall_avg_miss_latency::total 105370.955274                       # average overall miss latency
system.cpu.dcache.blocked_cycles::no_mshrs          158                       # number of cycles access was blocked
system.cpu.dcache.blocked_cycles::no_targets            0                       # number of cycles access was blocked
system.cpu.dcache.blocked::no_mshrs                 2                       # number of cycles access was blocked
system.cpu.dcache.blocked::no_targets               0                       # number of cycles access was blocked
system.cpu.dcache.avg_blocked_cycles::no_mshrs           79                       # average number of cycles each access was blocked
system.cpu.dcache.avg_blocked_cycles::no_targets          nan                       # average number of cycles each access was blocked
system.cpu.dcache.writebacks::.writebacks      5263396                       # number of writebacks
system.cpu.dcache.writebacks::total           5263396                       # number of writebacks
system.cpu.dcache.demand_mshr_hits::.cpu.data      5260540                       # number of demand (read+write) MSHR hits
system.cpu.dcache.demand_mshr_hits::total      5260540                       # number of demand (read+write) MSHR hits
system.cpu.dcache.overall_mshr_hits::.cpu.data      5260540                       # number of overall MSHR hits
system.cpu.dcache.overall_mshr_hits::total      5260540                       # number of overall MSHR hits
system.cpu.dcache.demand_mshr_misses::.cpu.data      5265633                       # number of demand (read+write) MSHR misses
system.cpu.dcache.demand_mshr_misses::total      5265633                       # number of demand (read+write) MSHR misses
system.cpu.dcache.overall_mshr_misses::.cpu.data      5265664                       # number of overall MSHR misses
system.cpu.dcache.overall_mshr_misses::total      5265664                       # number of overall MSHR misses
system.cpu.dcache.demand_mshr_miss_latency::.cpu.data 541607640000                       # number of demand (read+write) MSHR miss cycles
system.cpu.dcache.demand_mshr_miss_latency::total 541607640000                       # number of demand (read+write) MSHR miss cycles
system.cpu.dcache.overall_mshr_miss_latency::.cpu.data 541610677000                       # number of overall MSHR miss cycles
system.cpu.dcache.overall_mshr_miss_latency::total 541610677000                       # number of overall MSHR miss cycles
system.cpu.dcache.demand_mshr_miss_rate::.cpu.data     0.060959                       # mshr miss rate for demand accesses
system.cpu.dcache.demand_mshr_miss_rate::total     0.060959                       # mshr miss rate for demand accesses
system.cpu.dcache.overall_mshr_miss_rate::.cpu.data     0.060959                       # mshr miss rate for overall accesses
system.cpu.dcache.overall_mshr_miss_rate::total     0.060959                       # mshr miss rate for overall accesses
system.cpu.dcache.demand_avg_mshr_miss_latency::.cpu.data 102857.081001                       # average overall mshr miss latency
system.cpu.dcache.demand_avg_mshr_miss_latency::total 102857.081001                       # average overall mshr miss latency
system.cpu.dcache.overall_avg_mshr_miss_latency::.cpu.data 102857.052216                       # average overall mshr miss latency
system.cpu.dcache.overall_avg_mshr_miss_latency::total 102857.052216                       # average overall mshr miss latency
system.cpu.dcache.replacements                5264640                       # number of replacements
system.cpu.dcache.ReadReq_hits::.cpu.data      2042510                       # number of ReadReq hits
system.cpu.dcache.ReadReq_hits::total         2042510                       # number of ReadReq hits
system.cpu.dcache.ReadReq_misses::.cpu.data         1509                       # number of ReadReq misses
system.cpu.dcache.ReadReq_misses::total          1509                       # number of ReadReq misses
system.cpu.dcache.ReadReq_miss_latency::.cpu.data     66039000                       # number of ReadReq miss cycles
system.cpu.dcache.ReadReq_miss_latency::total     66039000                       # number of ReadReq miss cycles
system.cpu.dcache.ReadReq_accesses::.cpu.data      2044019                       # number of ReadReq accesses(hits+misses)
system.cpu.dcache.ReadReq_accesses::total      2044019                       # number of ReadReq accesses(hits+misses)
system.cpu.dcache.ReadReq_miss_rate::.cpu.data     0.000738                       # miss rate for ReadReq accesses
system.cpu.dcache.ReadReq_miss_rate::total     0.000738                       # miss rate for ReadReq accesses
system.cpu.dcache.ReadReq_avg_miss_latency::.cpu.data 43763.419483                       # average ReadReq miss latency
system.cpu.dcache.ReadReq_avg_miss_latency::total 43763.419483                       # average ReadReq miss latency
system.cpu.dcache.ReadReq_mshr_hits::.cpu.data           34                       # number of ReadReq MSHR hits
system.cpu.dcache.ReadReq_mshr_hits::total           34                       # number of ReadReq MSHR hits
system.cpu.dcache.ReadReq_mshr_misses::.cpu.data         1475                       # number of ReadReq MSHR misses
system.cpu.dcache.ReadReq_mshr_misses::total         1475                       # number of ReadReq MSHR misses
system.cpu.dcache.ReadReq_mshr_miss_latency::.cpu.data     60062000                       # number of ReadReq MSHR miss cycles
system.cpu.dcache.ReadReq_mshr_miss_latency::total     60062000                       # number of ReadReq MSHR miss cycles
system.cpu.dcache.ReadReq_mshr_miss_rate::.cpu.data     0.000722                       # mshr miss rate for ReadReq accesses
system.cpu.dcache.ReadReq_mshr_miss_rate::total     0.000722                       # mshr miss rate for ReadReq accesses
system.cpu.dcache.ReadReq_avg_mshr_miss_latency::.cpu.data        40720                       # average ReadReq mshr miss latency
system.cpu.dcache.ReadReq_avg_mshr_miss_latency::total        40720                       # average ReadReq mshr miss latency
system.cpu.dcache.WriteReq_hits::.cpu.data     73811928                       # number of WriteReq hits
system.cpu.dcache.WriteReq_hits::total       73811928                       # number of WriteReq hits
system.cpu.dcache.WriteReq_misses::.cpu.data     10524664                       # number of WriteReq misses
system.cpu.dcache.WriteReq_misses::total     10524664                       # number of WriteReq misses
system.cpu.dcache.WriteReq_miss_latency::.cpu.data 1109090447999                       # number of WriteReq miss cycles
system.cpu.dcache.WriteReq_miss_latency::total 1109090447999                       # number of WriteReq miss cycles
system.cpu.dcache.WriteReq_accesses::.cpu.data     84336592                       # number of WriteReq accesses(hits+misses)
system.cpu.dcache.WriteReq_accesses::total     84336592                       # number of WriteReq accesses(hits+misses)
system.cpu.dcache.WriteReq_miss_rate::.cpu.data     0.124794                       # miss rate for WriteReq accesses
system.cpu.dcache.WriteReq_miss_rate::total     0.124794                       # miss rate for WriteReq accesses
system.cpu.dcache.WriteReq_avg_miss_latency::.cpu.data 105380.128810                       # average WriteReq miss latency
system.cpu.dcache.WriteReq_avg_miss_latency::total 105380.128810                       # average WriteReq miss latency
system.cpu.dcache.WriteReq_mshr_hits::.cpu.data      5260506                       # number of WriteReq MSHR hits
system.cpu.dcache.WriteReq_mshr_hits::total      5260506                       # number of WriteReq MSHR hits
system.cpu.dcache.WriteReq_mshr_misses::.cpu.data      5264158                       # number of WriteReq MSHR misses
system.cpu.dcache.WriteReq_mshr_misses::total      5264158                       # number of WriteReq MSHR misses
system.cpu.dcache.WriteReq_mshr_miss_latency::.cpu.data 541547578000                       # number of WriteReq MSHR miss cycles
system.cpu.dcache.WriteReq_mshr_miss_latency::total 541547578000                       # number of WriteReq MSHR miss cycles
system.cpu.dcache.WriteReq_mshr_miss_rate::.cpu.data     0.062418                       # mshr miss rate for WriteReq accesses
system.cpu.dcache.WriteReq_mshr_miss_rate::total     0.062418                       # mshr miss rate for WriteReq accesses
system.cpu.dcache.WriteReq_avg_mshr_miss_latency::.cpu.data 102874.491609                       # average WriteReq mshr miss latency
system.cpu.dcache.WriteReq_avg_mshr_miss_latency::total 102874.491609                       # average WriteReq mshr miss latency
system.cpu.dcache.SoftPFReq_hits::.cpu.data           37                       # number of SoftPFReq hits
system.cpu.dcache.SoftPFReq_hits::total            37                       # number of SoftPFReq hits
system.cpu.dcache.SoftPFReq_misses::.cpu.data           34                       # number of SoftPFReq misses
system.cpu.dcache.SoftPFReq_misses::total           34                       # number of SoftPFReq misses
system.cpu.dcache.SoftPFReq_accesses::.cpu.data           71                       # number of SoftPFReq accesses(hits+misses)
system.cpu.dcache.SoftPFReq_accesses::total           71                       # number of SoftPFReq accesses(hits+misses)
system.cpu.dcache.SoftPFReq_miss_rate::.cpu.data     0.478873                       # miss rate for SoftPFReq accesses
system.cpu.dcache.SoftPFReq_miss_rate::total     0.478873                       # miss rate for SoftPFReq accesses
system.cpu.dcache.SoftPFReq_mshr_misses::.cpu.data           31                       # number of SoftPFReq MSHR misses
system.cpu.dcache.SoftPFReq_mshr_misses::total           31                       # number of SoftPFReq MSHR misses
system.cpu.dcache.SoftPFReq_mshr_miss_latency::.cpu.data      3037000                       # number of SoftPFReq MSHR miss cycles
system.cpu.dcache.SoftPFReq_mshr_miss_latency::total      3037000                       # number of SoftPFReq MSHR miss cycles
system.cpu.dcache.SoftPFReq_mshr_miss_rate::.cpu.data     0.436620                       # mshr miss rate for SoftPFReq accesses
system.cpu.dcache.SoftPFReq_mshr_miss_rate::total     0.436620                       # mshr miss rate for SoftPFReq accesses
system.cpu.dcache.SoftPFReq_avg_mshr_miss_latency::.cpu.data 97967.741935                       # average SoftPFReq mshr miss latency
system.cpu.dcache.SoftPFReq_avg_mshr_miss_latency::total 97967.741935                       # average SoftPFReq mshr miss latency
system.cpu.dcache.LoadLockedReq_hits::.cpu.data           34                       # number of LoadLockedReq hits
system.cpu.dcache.LoadLockedReq_hits::total           34                       # number of LoadLockedReq hits
system.cpu.dcache.LoadLockedReq_accesses::.cpu.data           34                       # number of LoadLockedReq accesses(hits+misses)
system.cpu.dcache.LoadLockedReq_accesses::total           34                       # number of LoadLockedReq accesses(hits+misses)
system.cpu.dcache.StoreCondReq_hits::.cpu.data           34                       # number of StoreCondReq hits
system.cpu.dcache.StoreCondReq_hits::total           34                       # number of StoreCondReq hits
system.cpu.dcache.StoreCondReq_accesses::.cpu.data           34                       # number of StoreCondReq accesses(hits+misses)
system.cpu.dcache.StoreCondReq_accesses::total           34                       # number of StoreCondReq accesses(hits+misses)
system.cpu.dcache.power_state.pwrStateResidencyTicks::UNDEFINED 705448977000                       # Cumulative time (in ticks) in various power states
system.cpu.dcache.tags.tagsinuse          1023.103326                       # Cycle average of tags in use
system.cpu.dcache.tags.total_refs            81120207                       # Total number of references to valid blocks.
system.cpu.dcache.tags.sampled_refs           5265664                       # Sample count of references to valid blocks.
system.cpu.dcache.tags.avg_refs             15.405504                       # Average number of references to valid blocks.
system.cpu.dcache.tags.warmup_cycle            223000                       # Cycle when the warmup percentage was hit.
system.cpu.dcache.tags.occ_blocks::.cpu.data  1023.103326                       # Average occupied blocks per requestor
system.cpu.dcache.tags.occ_percent::.cpu.data     0.999124                       # Average percentage of cache occupancy
system.cpu.dcache.tags.occ_percent::total     0.999124                       # Average percentage of cache occupancy
system.cpu.dcache.tags.occ_task_id_blocks::1024         1024                       # Occupied blocks per task id
system.cpu.dcache.tags.age_task_id_blocks_1024::0           76                       # Occupied blocks per task id
system.cpu.dcache.tags.age_task_id_blocks_1024::1          679                       # Occupied blocks per task id
system.cpu.dcache.tags.age_task_id_blocks_1024::2          269                       # Occupied blocks per task id
system.cpu.dcache.tags.occ_task_id_percent::1024            1                       # Percentage of cache occupancy per task id
system.cpu.dcache.tags.tag_accesses          91646414                       # Number of tag accesses
system.cpu.dcache.tags.data_accesses         91646414                       # Number of data accesses
system.cpu.dcache.tags.power_state.pwrStateResidencyTicks::UNDEFINED 705448977000                       # Cumulative time (in ticks) in various power states
system.cpu.dtb.instHits                             0                       # ITB inst hits
system.cpu.dtb.instMisses                           0                       # ITB inst misses
system.cpu.dtb.readHits                             0                       # DTB read hits
system.cpu.dtb.readMisses                           0                       # DTB read misses
system.cpu.dtb.writeHits                            0                       # DTB write hits
system.cpu.dtb.writeMisses                          0                       # DTB write misses
system.cpu.dtb.inserts                              0                       # Number of times an entry is inserted into the TLB
system.cpu.dtb.flushTlb                             0                       # Number of times complete TLB was flushed
system.cpu.dtb.flushTlbMva                          0                       # Number of times TLB was flushed by MVA
system.cpu.dtb.flushTlbMvaAsid                      0                       # Number of times TLB was flushed by MVA & ASID
system.cpu.dtb.flushTlbAsid                         0                       # Number of times TLB was flushed by ASID
system.cpu.dtb.flushedEntries                       0                       # Number of entries that have been flushed from TLB
system.cpu.dtb.alignFaults                          0                       # Number of TLB faults due to alignment restrictions
system.cpu.dtb.prefetchFaults                       0                       # Number of TLB faults due to prefetch
system.cpu.dtb.domainFaults                         0                       # Number of TLB faults due to domain restrictions
system.cpu.dtb.permsFaults                          0                       # Number of TLB faults due to permissions restrictions
system.cpu.dtb.readAccesses                         0                       # DTB read accesses
system.cpu.dtb.writeAccesses                        0                       # DTB write accesses
system.cpu.dtb.instAccesses                         0                       # ITB inst accesses
system.cpu.dtb.hits                                 0                       # Total TLB (inst and data) hits
system.cpu.dtb.misses                               0                       # Total TLB (inst and data) misses
system.cpu.dtb.accesses                             0                       # Total TLB (inst and data) accesses
system.cpu.dtb.stage2_mmu.stage2_tlb.instHits            0                       # ITB inst hits
system.cpu.dtb.stage2_mmu.stage2_tlb.instMisses            0                       # ITB inst misses
system.cpu.dtb.stage2_mmu.stage2_tlb.readHits            0                       # DTB read hits
system.cpu.dtb.stage2_mmu.stage2_tlb.readMisses            0                       # DTB read misses
system.cpu.dtb.stage2_mmu.stage2_tlb.writeHits            0                       # DTB write hits
system.cpu.dtb.stage2_mmu.stage2_tlb.writeMisses            0                       # DTB write misses
system.cpu.dtb.stage2_mmu.stage2_tlb.inserts            0                       # Number of times an entry is inserted into the TLB
system.cpu.dtb.stage2_mmu.stage2_tlb.flushTlb            0                       # Number of times complete TLB was flushed
system.cpu.dtb.stage2_mmu.stage2_tlb.flushTlbMva            0                       # Number of times TLB was flushed by MVA
system.cpu.dtb.stage2_mmu.stage2_tlb.flushTlbMvaAsid            0                       # Number of times TLB was flushed by MVA & ASID
system.cpu.dtb.stage2_mmu.stage2_tlb.flushTlbAsid            0                       # Number of times TLB was flushed by ASID
system.cpu.dtb.stage2_mmu.stage2_tlb.flushedEntries            0                       # Number of entries that have been flushed from TLB
system.cpu.dtb.stage2_mmu.stage2_tlb.alignFaults            0                       # Number of TLB faults due to alignment restrictions
system.cpu.dtb.stage2_mmu.stage2_tlb.prefetchFaults            0                       # Number of TLB faults due to prefetch
system.cpu.dtb.stage2_mmu.stage2_tlb.domainFaults            0                       # Number of TLB faults due to domain restrictions
system.cpu.dtb.stage2_mmu.stage2_tlb.permsFaults            0                       # Number of TLB faults due to permissions restrictions
system.cpu.dtb.stage2_mmu.stage2_tlb.readAccesses            0                       # DTB read accesses
system.cpu.dtb.stage2_mmu.stage2_tlb.writeAccesses            0                       # DTB write accesses
system.cpu.dtb.stage2_mmu.stage2_tlb.instAccesses            0                       # ITB inst accesses
system.cpu.dtb.stage2_mmu.stage2_tlb.hits            0                       # Total TLB (inst and data) hits
system.cpu.dtb.stage2_mmu.stage2_tlb.misses            0                       # Total TLB (inst and data) misses
system.cpu.dtb.stage2_mmu.stage2_tlb.accesses            0                       # Total TLB (inst and data) accesses
system.cpu.dtb.stage2_mmu.stage2_tlb.walker.walks            0                       # Table walker walks requested
system.cpu.dtb.stage2_mmu.stage2_tlb.walker.requestOrigin_Requested::Data            0                       # Table walker requests started/completed, data/inst
system.cpu.dtb.stage2_mmu.stage2_tlb.walker.requestOrigin_Requested::Inst            0                       # Table walker requests started/completed, data/inst
system.cpu.dtb.stage2_mmu.stage2_tlb.walker.requestOrigin_Requested::total            0                       # Table walker requests started/completed, data/inst
system.cpu.dtb.stage2_mmu.stage2_tlb.walker.requestOrigin_Completed::Data            0                       # Table walker requests started/completed, data/inst
system.cpu.dtb.stage2_mmu.stage2_tlb.walker.requestOrigin_Completed::Inst            0                       # Table walker requests started/completed, data/inst
system.cpu.dtb.stage2_mmu.stage2_tlb.walker.requestOrigin_Completed::total            0                       # Table walker requests started/completed, data/inst
system.cpu.dtb.stage2_mmu.stage2_tlb.walker.requestOrigin::total            0                       # Table walker requests started/completed, data/inst
system.cpu.dtb.stage2_mmu.stage2_tlb.walker.power_state.pwrStateResidencyTicks::UNDEFINED 705448977000                       # Cumulative time (in ticks) in various power states
system.cpu.dtb.walker.walks                         0                       # Table walker walks requested
system.cpu.dtb.walker.requestOrigin_Requested::Data            0                       # Table walker requests started/completed, data/inst
system.cpu.dtb.walker.requestOrigin_Requested::Inst            0                       # Table walker requests started/completed, data/inst
system.cpu.dtb.walker.requestOrigin_Requested::total            0                       # Table walker requests started/completed, data/inst
system.cpu.dtb.walker.requestOrigin_Completed::Data            0                       # Table walker requests started/completed, data/inst
system.cpu.dtb.walker.requestOrigin_Completed::Inst            0                       # Table walker requests started/completed, data/inst
system.cpu.dtb.walker.requestOrigin_Completed::total            0                       # Table walker requests started/completed, data/inst
system.cpu.dtb.walker.requestOrigin::total            0                       # Table walker requests started/completed, data/inst
system.cpu.dtb.walker.power_state.pwrStateResidencyTicks::UNDEFINED 705448977000                       # Cumulative time (in ticks) in various power states
system.cpu.fetch2.intInstructions            45070977                       # Number of integer instructions successfully decoded
system.cpu.fetch2.fpInstructions                    0                       # Number of floating point instructions successfully decoded
system.cpu.fetch2.vecInstructions                   0                       # Number of SIMD instructions successfully decoded
system.cpu.fetch2.loadInstructions            2086414                       # Number of memory load instructions successfully decoded
system.cpu.fetch2.storeInstructions            169117                       # Number of memory store instructions successfully decoded
system.cpu.fetch2.amoInstructions                   0                       # Number of memory atomic instructions successfully decoded
system.cpu.icache.demand_hits::.cpu.inst     32144810                       # number of demand (read+write) hits
system.cpu.icache.demand_hits::total         32144810                       # number of demand (read+write) hits
system.cpu.icache.overall_hits::.cpu.inst     32144810                       # number of overall hits
system.cpu.icache.overall_hits::total        32144810                       # number of overall hits
system.cpu.icache.demand_misses::.cpu.inst          631                       # number of demand (read+write) misses
system.cpu.icache.demand_misses::total            631                       # number of demand (read+write) misses
system.cpu.icache.overall_misses::.cpu.inst          631                       # number of overall misses
system.cpu.icache.overall_misses::total           631                       # number of overall misses
system.cpu.icache.demand_miss_latency::.cpu.inst     62951000                       # number of demand (read+write) miss cycles
system.cpu.icache.demand_miss_latency::total     62951000                       # number of demand (read+write) miss cycles
system.cpu.icache.overall_miss_latency::.cpu.inst     62951000                       # number of overall miss cycles
system.cpu.icache.overall_miss_latency::total     62951000                       # number of overall miss cycles
system.cpu.icache.demand_accesses::.cpu.inst     32145441                       # number of demand (read+write) accesses
system.cpu.icache.demand_accesses::total     32145441                       # number of demand (read+write) accesses
system.cpu.icache.overall_accesses::.cpu.inst     32145441                       # number of overall (read+write) accesses
system.cpu.icache.overall_accesses::total     32145441                       # number of overall (read+write) accesses
system.cpu.icache.demand_miss_rate::.cpu.inst     0.000020                       # miss rate for demand accesses
system.cpu.icache.demand_miss_rate::total     0.000020                       # miss rate for demand accesses
system.cpu.icache.overall_miss_rate::.cpu.inst     0.000020                       # miss rate for overall accesses
system.cpu.icache.overall_miss_rate::total     0.000020                       # miss rate for overall accesses
system.cpu.icache.demand_avg_miss_latency::.cpu.inst 99763.866878                       # average overall miss latency
system.cpu.icache.demand_avg_miss_latency::total 99763.866878                       # average overall miss latency
system.cpu.icache.overall_avg_miss_latency::.cpu.inst 99763.866878                       # average overall miss latency
system.cpu.icache.overall_avg_miss_latency::total 99763.866878                       # average overall miss latency
system.cpu.icache.blocked_cycles::no_mshrs            0                       # number of cycles access was blocked
system.cpu.icache.blocked_cycles::no_targets            0                       # number of cycles access was blocked
system.cpu.icache.blocked::no_mshrs                 0                       # number of cycles access was blocked
system.cpu.icache.blocked::no_targets               0                       # number of cycles access was blocked
system.cpu.icache.avg_blocked_cycles::no_mshrs          nan                       # average number of cycles each access was blocked
system.cpu.icache.avg_blocked_cycles::no_targets          nan                       # average number of cycles each access was blocked
system.cpu.icache.writebacks::.writebacks          121                       # number of writebacks
system.cpu.icache.writebacks::total               121                       # number of writebacks
system.cpu.icache.demand_mshr_misses::.cpu.inst          631                       # number of demand (read+write) MSHR misses
system.cpu.icache.demand_mshr_misses::total          631                       # number of demand (read+write) MSHR misses
system.cpu.icache.overall_mshr_misses::.cpu.inst          631                       # number of overall MSHR misses
system.cpu.icache.overall_mshr_misses::total          631                       # number of overall MSHR misses
system.cpu.icache.demand_mshr_miss_latency::.cpu.inst     61689000                       # number of demand (read+write) MSHR miss cycles
system.cpu.icache.demand_mshr_miss_latency::total     61689000                       # number of demand (read+write) MSHR miss cycles
system.cpu.icache.overall_mshr_miss_latency::.cpu.inst     61689000                       # number of overall MSHR miss cycles
system.cpu.icache.overall_mshr_miss_latency::total     61689000                       # number of overall MSHR miss cycles
system.cpu.icache.demand_mshr_miss_rate::.cpu.inst     0.000020                       # mshr miss rate for demand accesses
system.cpu.icache.demand_mshr_miss_rate::total     0.000020                       # mshr miss rate for demand accesses
system.cpu.icache.overall_mshr_miss_rate::.cpu.inst     0.000020                       # mshr miss rate for overall accesses
system.cpu.icache.overall_mshr_miss_rate::total     0.000020                       # mshr miss rate for overall accesses
system.cpu.icache.demand_avg_mshr_miss_latency::.cpu.inst 97763.866878                       # average overall mshr miss latency
system.cpu.icache.demand_avg_mshr_miss_latency::total 97763.866878                       # average overall mshr miss latency
system.cpu.icache.overall_avg_mshr_miss_latency::.cpu.inst 97763.866878                       # average overall mshr miss latency
system.cpu.icache.overall_avg_mshr_miss_latency::total 97763.866878                       # average overall mshr miss latency
system.cpu.icache.replacements                    121                       # number of replacements
system.cpu.icache.ReadReq_hits::.cpu.inst     32144810                       # number of ReadReq hits
system.cpu.icache.ReadReq_hits::total        32144810                       # number of ReadReq hits
system.cpu.icache.ReadReq_misses::.cpu.inst          631                       # number of ReadReq misses
system.cpu.icache.ReadReq_misses::total           631                       # number of ReadReq misses
system.cpu.icache.ReadReq_miss_latency::.cpu.inst     62951000                       # number of ReadReq miss cycles
system.cpu.icache.ReadReq_miss_latency::total     62951000                       # number of ReadReq miss cycles
system.cpu.icache.ReadReq_accesses::.cpu.inst     32145441                       # number of ReadReq accesses(hits+misses)
system.cpu.icache.ReadReq_accesses::total     32145441                       # number of ReadReq accesses(hits+misses)
system.cpu.icache.ReadReq_miss_rate::.cpu.inst     0.000020                       # miss rate for ReadReq accesses
system.cpu.icache.ReadReq_miss_rate::total     0.000020                       # miss rate for ReadReq accesses
system.cpu.icache.ReadReq_avg_miss_latency::.cpu.inst 99763.866878                       # average ReadReq miss latency
system.cpu.icache.ReadReq_avg_miss_latency::total 99763.866878                       # average ReadReq miss latency
system.cpu.icache.ReadReq_mshr_misses::.cpu.inst          631                       # number of ReadReq MSHR misses
system.cpu.icache.ReadReq_mshr_misses::total          631                       # number of ReadReq MSHR misses
system.cpu.icache.ReadReq_mshr_miss_latency::.cpu.inst     61689000                       # number of ReadReq MSHR miss cycles
system.cpu.icache.ReadReq_mshr_miss_latency::total     61689000                       # number of ReadReq MSHR miss cycles
system.cpu.icache.ReadReq_mshr_miss_rate::.cpu.inst     0.000020                       # mshr miss rate for ReadReq accesses
system.cpu.icache.ReadReq_mshr_miss_rate::total     0.000020                       # mshr miss rate for ReadReq accesses
system.cpu.icache.ReadReq_avg_mshr_miss_latency::.cpu.inst 97763.866878                       # average ReadReq mshr miss latency
system.cpu.icache.ReadReq_avg_mshr_miss_latency::total 97763.866878                       # average ReadReq mshr miss latency
system.cpu.icache.power_state.pwrStateResidencyTicks::UNDEFINED 705448977000                       # Cumulative time (in ticks) in various power states
system.cpu.icache.tags.tagsinuse           436.264553                       # Cycle average of tags in use
system.cpu.icache.tags.total_refs            32145441                       # Total number of references to valid blocks.
system.cpu.icache.tags.sampled_refs               631                       # Sample count of references to valid blocks.
system.cpu.icache.tags.avg_refs          50943.646593                       # Average number of references to valid blocks.
system.cpu.icache.tags.warmup_cycle            108000                       # Cycle when the warmup percentage was hit.
system.cpu.icache.tags.occ_blocks::.cpu.inst   436.264553                       # Average occupied blocks per requestor
system.cpu.icache.tags.occ_percent::.cpu.inst     0.426040                       # Average percentage of cache occupancy
system.cpu.icache.tags.occ_percent::total     0.426040                       # Average percentage of cache occupancy
system.cpu.icache.tags.occ_task_id_blocks::1024          510                       # Occupied blocks per task id
system.cpu.icache.tags.age_task_id_blocks_1024::4          510                       # Occupied blocks per task id
system.cpu.icache.tags.occ_task_id_percent::1024     0.498047                       # Percentage of cache occupancy per task id
system.cpu.icache.tags.tag_accesses          32146072                       # Number of tag accesses
system.cpu.icache.tags.data_accesses         32146072                       # Number of data accesses
system.cpu.icache.tags.power_state.pwrStateResidencyTicks::UNDEFINED 705448977000                       # Cumulative time (in ticks) in various power states
system.cpu.itb.instHits                             0                       # ITB inst hits
system.cpu.itb.instMisses                           0                       # ITB inst misses
system.cpu.itb.readHits                             0                       # DTB read hits
system.cpu.itb.readMisses                           0                       # DTB read misses
system.cpu.itb.writeHits                            0                       # DTB write hits
system.cpu.itb.writeMisses                          0                       # DTB write misses
system.cpu.itb.inserts                              0                       # Number of times an entry is inserted into the TLB
system.cpu.itb.flushTlb                             0                       # Number of times complete TLB was flushed
system.cpu.itb.flushTlbMva                          0                       # Number of times TLB was flushed by MVA
system.cpu.itb.flushTlbMvaAsid                      0                       # Number of times TLB was flushed by MVA & ASID
system.cpu.itb.flushTlbAsid                         0                       # Number of times TLB was flushed by ASID
system.cpu.itb.flushedEntries                       0                       # Number of entries that have been flushed from TLB
system.cpu.itb.alignFaults                          0                       # Number of TLB faults due to alignment restrictions
system.cpu.itb.prefetchFaults                       0                       # Number of TLB faults due to prefetch
system.cpu.itb.domainFaults                         0                       # Number of TLB faults due to domain restrictions
system.cpu.itb.permsFaults                          0                       # Number of TLB faults due to permissions restrictions
system.cpu.itb.readAccesses                         0                       # DTB read accesses
system.cpu.itb.writeAccesses                        0                       # DTB write accesses
system.cpu.itb.instAccesses                         0                       # ITB inst accesses
system.cpu.itb.hits                                 0                       # Total TLB (inst and data) hits
system.cpu.itb.misses                               0                       # Total TLB (inst and data) misses
system.cpu.itb.accesses                             0                       # Total TLB (inst and data) accesses
system.cpu.itb.stage2_mmu.stage2_tlb.instHits            0                       # ITB inst hits
system.cpu.itb.stage2_mmu.stage2_tlb.instMisses            0                       # ITB inst misses
system.cpu.itb.stage2_mmu.stage2_tlb.readHits            0                       # DTB read hits
system.cpu.itb.stage2_mmu.stage2_tlb.readMisses            0                       # DTB read misses
system.cpu.itb.stage2_mmu.stage2_tlb.writeHits            0                       # DTB write hits
system.cpu.itb.stage2_mmu.stage2_tlb.writeMisses            0                       # DTB write misses
system.cpu.itb.stage2_mmu.stage2_tlb.inserts            0                       # Number of times an entry is inserted into the TLB
system.cpu.itb.stage2_mmu.stage2_tlb.flushTlb            0                       # Number of times complete TLB was flushed
system.cpu.itb.stage2_mmu.stage2_tlb.flushTlbMva            0                       # Number of times TLB was flushed by MVA
system.cpu.itb.stage2_mmu.stage2_tlb.flushTlbMvaAsid            0                       # Number of times TLB was flushed by MVA & ASID
system.cpu.itb.stage2_mmu.stage2_tlb.flushTlbAsid            0                       # Number of times TLB was flushed by ASID
system.cpu.itb.stage2_mmu.stage2_tlb.flushedEntries            0                       # Number of entries that have been flushed from TLB
system.cpu.itb.stage2_mmu.stage2_tlb.alignFaults            0                       # Number of TLB faults due to alignment restrictions
system.cpu.itb.stage2_mmu.stage2_tlb.prefetchFaults            0                       # Number of TLB faults due to prefetch
system.cpu.itb.stage2_mmu.stage2_tlb.domainFaults            0                       # Number of TLB faults due to domain restrictions
system.cpu.itb.stage2_mmu.stage2_tlb.permsFaults            0                       # Number of TLB faults due to permissions restrictions
system.cpu.itb.stage2_mmu.stage2_tlb.readAccesses            0                       # DTB read accesses
system.cpu.itb.stage2_mmu.stage2_tlb.writeAccesses            0                       # DTB write accesses
system.cpu.itb.stage2_mmu.stage2_tlb.instAccesses            0                       # ITB inst accesses
system.cpu.itb.stage2_mmu.stage2_tlb.hits            0                       # Total TLB (inst and data) hits
system.cpu.itb.stage2_mmu.stage2_tlb.misses            0                       # Total TLB (inst and data) misses
system.cpu.itb.stage2_mmu.stage2_tlb.accesses            0                       # Total TLB (inst and data) accesses
system.cpu.itb.stage2_mmu.stage2_tlb.walker.walks            0                       # Table walker walks requested
system.cpu.itb.stage2_mmu.stage2_tlb.walker.requestOrigin_Requested::Data            0                       # Table walker requests started/completed, data/inst
system.cpu.itb.stage2_mmu.stage2_tlb.walker.requestOrigin_Requested::Inst            0                       # Table walker requests started/completed, data/inst
system.cpu.itb.stage2_mmu.stage2_tlb.walker.requestOrigin_Requested::total            0                       # Table walker requests started/completed, data/inst
system.cpu.itb.stage2_mmu.stage2_tlb.walker.requestOrigin_Completed::Data            0                       # Table walker requests started/completed, data/inst
system.cpu.itb.stage2_mmu.stage2_tlb.walker.requestOrigin_Completed::Inst            0                       # Table walker requests started/completed, data/inst
system.cpu.itb.stage2_mmu.stage2_tlb.walker.requestOrigin_Completed::total            0                       # Table walker requests started/completed, data/inst
system.cpu.itb.stage2_mmu.stage2_tlb.walker.requestOrigin::total            0                       # Table walker requests started/completed, data/inst
system.cpu.itb.stage2_mmu.stage2_tlb.walker.power_state.pwrStateResidencyTicks::UNDEFINED 705448977000                       # Cumulative time (in ticks) in various power states
system.cpu.itb.walker.walks                         0                       # Table walker walks requested
system.cpu.itb.walker.requestOrigin_Requested::Data            0                       # Table walker requests started/completed, data/inst
system.cpu.itb.walker.requestOrigin_Requested::Inst            0                       # Table walker requests started/completed, data/inst
system.cpu.itb.walker.requestOrigin_Requested::total            0                       # Table walker requests started/completed, data/inst
system.cpu.itb.walker.requestOrigin_Completed::Data            0                       # Table walker requests started/completed, data/inst
system.cpu.itb.walker.requestOrigin_Completed::Inst            0                       # Table walker requests started/completed, data/inst
system.cpu.itb.walker.requestOrigin_Completed::total            0                       # Table walker requests started/completed, data/inst
system.cpu.itb.walker.requestOrigin::total            0                       # Table walker requests started/completed, data/inst
system.cpu.itb.walker.power_state.pwrStateResidencyTicks::UNDEFINED 705448977000                       # Cumulative time (in ticks) in various power states
system.cpu.power_state.pwrStateResidencyTicks::ON 705448977000                       # Cumulative time (in ticks) in various power states
system.cpu.thread_0.numInsts                100000001                       # Number of Instructions committed
system.cpu.thread_0.numOps                  184218784                       # Number of Ops committed
system.cpu.thread_0.numMemRefs                      0                       # Number of Memory References
system.cpu_clk_domain.clock                      1000                       # Clock period in ticks
system.cpu_voltage_domain.voltage                   1                       # Voltage in Volts
system.l2.demand_hits::.cpu.inst                   41                       # number of demand (read+write) hits
system.l2.demand_hits::.cpu.data                 2355                       # number of demand (read+write) hits
system.l2.demand_hits::total                     2396                       # number of demand (read+write) hits
system.l2.overall_hits::.cpu.inst                  41                       # number of overall hits
system.l2.overall_hits::.cpu.data                2355                       # number of overall hits
system.l2.overall_hits::total                    2396                       # number of overall hits
system.l2.demand_misses::.cpu.inst                590                       # number of demand (read+write) misses
system.l2.demand_misses::.cpu.data            5263309                       # number of demand (read+write) misses
system.l2.demand_misses::total                5263899                       # number of demand (read+write) misses
system.l2.overall_misses::.cpu.inst               590                       # number of overall misses
system.l2.overall_misses::.cpu.data           5263309                       # number of overall misses
system.l2.overall_misses::total               5263899                       # number of overall misses
system.l2.demand_miss_latency::.cpu.inst     58890000                       # number of demand (read+write) miss cycles
system.l2.demand_miss_latency::.cpu.data 525754979000                       # number of demand (read+write) miss cycles
system.l2.demand_miss_latency::total     525813869000                       # number of demand (read+write) miss cycles
system.l2.overall_miss_latency::.cpu.inst     58890000                       # number of overall miss cycles
system.l2.overall_miss_latency::.cpu.data 525754979000                       # number of overall miss cycles
system.l2.overall_miss_latency::total    525813869000                       # number of overall miss cycles
system.l2.demand_accesses::.cpu.inst              631                       # number of demand (read+write) accesses
system.l2.demand_accesses::.cpu.data          5265664                       # number of demand (read+write) accesses
system.l2.demand_accesses::total              5266295                       # number of demand (read+write) accesses
system.l2.overall_accesses::.cpu.inst             631                       # number of overall (read+write) accesses
system.l2.overall_accesses::.cpu.data         5265664                       # number of overall (read+write) accesses
system.l2.overall_accesses::total             5266295                       # number of overall (read+write) accesses
system.l2.demand_miss_rate::.cpu.inst        0.935024                       # miss rate for demand accesses
system.l2.demand_miss_rate::.cpu.data        0.999553                       # miss rate for demand accesses
system.l2.demand_miss_rate::total            0.999545                       # miss rate for demand accesses
system.l2.overall_miss_rate::.cpu.inst       0.935024                       # miss rate for overall accesses
system.l2.overall_miss_rate::.cpu.data       0.999553                       # miss rate for overall accesses
system.l2.overall_miss_rate::total           0.999545                       # miss rate for overall accesses
system.l2.demand_avg_miss_latency::.cpu.inst 99813.559322                       # average overall miss latency
system.l2.demand_avg_miss_latency::.cpu.data 99890.578152                       # average overall miss latency
system.l2.demand_avg_miss_latency::total 99890.569519                       # average overall miss latency
system.l2.overall_avg_miss_latency::.cpu.inst 99813.559322                       # average overall miss latency
system.l2.overall_avg_miss_latency::.cpu.data 99890.578152                       # average overall miss latency
system.l2.overall_avg_miss_latency::total 99890.569519                       # average overall miss latency
system.l2.blocked_cycles::no_mshrs                  0                       # number of cycles access was blocked
system.l2.blocked_cycles::no_targets                0                       # number of cycles access was blocked
system.l2.blocked::no_mshrs                         0                       # number of cycles access was blocked
system.l2.blocked::no_targets                       0                       # number of cycles access was blocked
system.l2.avg_blocked_cycles::no_mshrs            nan                       # average number of cycles each access was blocked
system.l2.avg_blocked_cycles::no_targets          nan                       # average number of cycles each access was blocked
system.l2.writebacks::.writebacks             5230283                       # number of writebacks
system.l2.writebacks::total                   5230283                       # number of writebacks
system.l2.demand_mshr_hits::.cpu.inst               1                       # number of demand (read+write) MSHR hits
system.l2.demand_mshr_hits::.cpu.data               6                       # number of demand (read+write) MSHR hits
system.l2.demand_mshr_hits::total                   7                       # number of demand (read+write) MSHR hits
system.l2.overall_mshr_hits::.cpu.inst              1                       # number of overall MSHR hits
system.l2.overall_mshr_hits::.cpu.data              6                       # number of overall MSHR hits
system.l2.overall_mshr_hits::total                  7                       # number of overall MSHR hits
system.l2.demand_mshr_misses::.cpu.inst           589                       # number of demand (read+write) MSHR misses
system.l2.demand_mshr_misses::.cpu.data       5263303                       # number of demand (read+write) MSHR misses
system.l2.demand_mshr_misses::total           5263892                       # number of demand (read+write) MSHR misses
system.l2.overall_mshr_misses::.cpu.inst          589                       # number of overall MSHR misses
system.l2.overall_mshr_misses::.cpu.data      5263303                       # number of overall MSHR misses
system.l2.overall_mshr_misses::total          5263892                       # number of overall MSHR misses
system.l2.demand_mshr_miss_latency::.cpu.inst     47031000                       # number of demand (read+write) MSHR miss cycles
system.l2.demand_mshr_miss_latency::.cpu.data 420488416000                       # number of demand (read+write) MSHR miss cycles
system.l2.demand_mshr_miss_latency::total 420535447000                       # number of demand (read+write) MSHR miss cycles
system.l2.overall_mshr_miss_latency::.cpu.inst     47031000                       # number of overall MSHR miss cycles
system.l2.overall_mshr_miss_latency::.cpu.data 420488416000                       # number of overall MSHR miss cycles
system.l2.overall_mshr_miss_latency::total 420535447000                       # number of overall MSHR miss cycles
system.l2.demand_mshr_miss_rate::.cpu.inst     0.933439                       # mshr miss rate for demand accesses
system.l2.demand_mshr_miss_rate::.cpu.data     0.999552                       # mshr miss rate for demand accesses
system.l2.demand_mshr_miss_rate::total       0.999544                       # mshr miss rate for demand accesses
system.l2.overall_mshr_miss_rate::.cpu.inst     0.933439                       # mshr miss rate for overall accesses
system.l2.overall_mshr_miss_rate::.cpu.data     0.999552                       # mshr miss rate for overall accesses
system.l2.overall_mshr_miss_rate::total      0.999544                       # mshr miss rate for overall accesses
system.l2.demand_avg_mshr_miss_latency::.cpu.inst 79848.896435                       # average overall mshr miss latency
system.l2.demand_avg_mshr_miss_latency::.cpu.data 79890.596456                       # average overall mshr miss latency
system.l2.demand_avg_mshr_miss_latency::total 79890.591790                       # average overall mshr miss latency
system.l2.overall_avg_mshr_miss_latency::.cpu.inst 79848.896435                       # average overall mshr miss latency
system.l2.overall_avg_mshr_miss_latency::.cpu.data 79890.596456                       # average overall mshr miss latency
system.l2.overall_avg_mshr_miss_latency::total 79890.591790                       # average overall mshr miss latency
system.l2.replacements                        5231171                       # number of replacements
system.l2.WritebackDirty_hits::.writebacks      5263396                       # number of WritebackDirty hits
system.l2.WritebackDirty_hits::total          5263396                       # number of WritebackDirty hits
system.l2.WritebackDirty_accesses::.writebacks      5263396                       # number of WritebackDirty accesses(hits+misses)
system.l2.WritebackDirty_accesses::total      5263396                       # number of WritebackDirty accesses(hits+misses)
system.l2.WritebackClean_hits::.writebacks          119                       # number of WritebackClean hits
system.l2.WritebackClean_hits::total              119                       # number of WritebackClean hits
system.l2.WritebackClean_accesses::.writebacks          119                       # number of WritebackClean accesses(hits+misses)
system.l2.WritebackClean_accesses::total          119                       # number of WritebackClean accesses(hits+misses)
system.l2.ReadExReq_hits::.cpu.data              1136                       # number of ReadExReq hits
system.l2.ReadExReq_hits::total                  1136                       # number of ReadExReq hits
system.l2.ReadExReq_misses::.cpu.data         5263022                       # number of ReadExReq misses
system.l2.ReadExReq_misses::total             5263022                       # number of ReadExReq misses
system.l2.ReadExReq_miss_latency::.cpu.data 525724986000                       # number of ReadExReq miss cycles
system.l2.ReadExReq_miss_latency::total  525724986000                       # number of ReadExReq miss cycles
system.l2.ReadExReq_accesses::.cpu.data       5264158                       # number of ReadExReq accesses(hits+misses)
system.l2.ReadExReq_accesses::total           5264158                       # number of ReadExReq accesses(hits+misses)
system.l2.ReadExReq_miss_rate::.cpu.data     0.999784                       # miss rate for ReadExReq accesses
system.l2.ReadExReq_miss_rate::total         0.999784                       # miss rate for ReadExReq accesses
system.l2.ReadExReq_avg_miss_latency::.cpu.data 99890.326508                       # average ReadExReq miss latency
system.l2.ReadExReq_avg_miss_latency::total 99890.326508                       # average ReadExReq miss latency
system.l2.ReadExReq_mshr_misses::.cpu.data      5263022                       # number of ReadExReq MSHR misses
system.l2.ReadExReq_mshr_misses::total        5263022                       # number of ReadExReq MSHR misses
system.l2.ReadExReq_mshr_miss_latency::.cpu.data 420464546000                       # number of ReadExReq MSHR miss cycles
system.l2.ReadExReq_mshr_miss_latency::total 420464546000                       # number of ReadExReq MSHR miss cycles
system.l2.ReadExReq_mshr_miss_rate::.cpu.data     0.999784                       # mshr miss rate for ReadExReq accesses
system.l2.ReadExReq_mshr_miss_rate::total     0.999784                       # mshr miss rate for ReadExReq accesses
system.l2.ReadExReq_avg_mshr_miss_latency::.cpu.data 79890.326508                       # average ReadExReq mshr miss latency
system.l2.ReadExReq_avg_mshr_miss_latency::total 79890.326508                       # average ReadExReq mshr miss latency
system.l2.ReadCleanReq_hits::.cpu.inst             41                       # number of ReadCleanReq hits
system.l2.ReadCleanReq_hits::total                 41                       # number of ReadCleanReq hits
system.l2.ReadCleanReq_misses::.cpu.inst          590                       # number of ReadCleanReq misses
system.l2.ReadCleanReq_misses::total              590                       # number of ReadCleanReq misses
system.l2.ReadCleanReq_miss_latency::.cpu.inst     58890000                       # number of ReadCleanReq miss cycles
system.l2.ReadCleanReq_miss_latency::total     58890000                       # number of ReadCleanReq miss cycles
system.l2.ReadCleanReq_accesses::.cpu.inst          631                       # number of ReadCleanReq accesses(hits+misses)
system.l2.ReadCleanReq_accesses::total            631                       # number of ReadCleanReq accesses(hits+misses)
system.l2.ReadCleanReq_miss_rate::.cpu.inst     0.935024                       # miss rate for ReadCleanReq accesses
system.l2.ReadCleanReq_miss_rate::total      0.935024                       # miss rate for ReadCleanReq accesses
system.l2.ReadCleanReq_avg_miss_latency::.cpu.inst 99813.559322                       # average ReadCleanReq miss latency
system.l2.ReadCleanReq_avg_miss_latency::total 99813.559322                       # average ReadCleanReq miss latency
system.l2.ReadCleanReq_mshr_hits::.cpu.inst            1                       # number of ReadCleanReq MSHR hits
system.l2.ReadCleanReq_mshr_hits::total             1                       # number of ReadCleanReq MSHR hits
system.l2.ReadCleanReq_mshr_misses::.cpu.inst          589                       # number of ReadCleanReq MSHR misses
system.l2.ReadCleanReq_mshr_misses::total          589                       # number of ReadCleanReq MSHR misses
system.l2.ReadCleanReq_mshr_miss_latency::.cpu.inst     47031000                       # number of ReadCleanReq MSHR miss cycles
system.l2.ReadCleanReq_mshr_miss_latency::total     47031000                       # number of ReadCleanReq MSHR miss cycles
system.l2.ReadCleanReq_mshr_miss_rate::.cpu.inst     0.933439                       # mshr miss rate for ReadCleanReq accesses
system.l2.ReadCleanReq_mshr_miss_rate::total     0.933439                       # mshr miss rate for ReadCleanReq accesses
system.l2.ReadCleanReq_avg_mshr_miss_latency::.cpu.inst 79848.896435                       # average ReadCleanReq mshr miss latency
system.l2.ReadCleanReq_avg_mshr_miss_latency::total 79848.896435                       # average ReadCleanReq mshr miss latency
system.l2.ReadSharedReq_hits::.cpu.data          1219                       # number of ReadSharedReq hits
system.l2.ReadSharedReq_hits::total              1219                       # number of ReadSharedReq hits
system.l2.ReadSharedReq_misses::.cpu.data          287                       # number of ReadSharedReq misses
system.l2.ReadSharedReq_misses::total             287                       # number of ReadSharedReq misses
system.l2.ReadSharedReq_miss_latency::.cpu.data     29993000                       # number of ReadSharedReq miss cycles
system.l2.ReadSharedReq_miss_latency::total     29993000                       # number of ReadSharedReq miss cycles
system.l2.ReadSharedReq_accesses::.cpu.data         1506                       # number of ReadSharedReq accesses(hits+misses)
system.l2.ReadSharedReq_accesses::total          1506                       # number of ReadSharedReq accesses(hits+misses)
system.l2.ReadSharedReq_miss_rate::.cpu.data     0.190571                       # miss rate for ReadSharedReq accesses
system.l2.ReadSharedReq_miss_rate::total     0.190571                       # miss rate for ReadSharedReq accesses
system.l2.ReadSharedReq_avg_miss_latency::.cpu.data 104505.226481                       # average ReadSharedReq miss latency
system.l2.ReadSharedReq_avg_miss_latency::total 104505.226481                       # average ReadSharedReq miss latency
system.l2.ReadSharedReq_mshr_hits::.cpu.data            6                       # number of ReadSharedReq MSHR hits
system.l2.ReadSharedReq_mshr_hits::total            6                       # number of ReadSharedReq MSHR hits
system.l2.ReadSharedReq_mshr_misses::.cpu.data          281                       # number of ReadSharedReq MSHR misses
system.l2.ReadSharedReq_mshr_misses::total          281                       # number of ReadSharedReq MSHR misses
system.l2.ReadSharedReq_mshr_miss_latency::.cpu.data     23870000                       # number of ReadSharedReq MSHR miss cycles
system.l2.ReadSharedReq_mshr_miss_latency::total     23870000                       # number of ReadSharedReq MSHR miss cycles
system.l2.ReadSharedReq_mshr_miss_rate::.cpu.data     0.186587                       # mshr miss rate for ReadSharedReq accesses
system.l2.ReadSharedReq_mshr_miss_rate::total     0.186587                       # mshr miss rate for ReadSharedReq accesses
system.l2.ReadSharedReq_avg_mshr_miss_latency::.cpu.data 84946.619217                       # average ReadSharedReq mshr miss latency
system.l2.ReadSharedReq_avg_mshr_miss_latency::total 84946.619217                       # average ReadSharedReq mshr miss latency
system.l2.power_state.pwrStateResidencyTicks::UNDEFINED 705448977000                       # Cumulative time (in ticks) in various power states
system.l2.tags.tagsinuse                 32427.798214                       # Cycle average of tags in use
system.l2.tags.total_refs                    10530799                       # Total number of references to valid blocks.
system.l2.tags.sampled_refs                   5263939                       # Sample count of references to valid blocks.
system.l2.tags.avg_refs                      2.000555                       # Average number of references to valid blocks.
system.l2.tags.warmup_cycle                     87000                       # Cycle when the warmup percentage was hit.
system.l2.tags.occ_blocks::.writebacks       0.173494                       # Average occupied blocks per requestor
system.l2.tags.occ_blocks::.cpu.inst         5.117254                       # Average occupied blocks per requestor
system.l2.tags.occ_blocks::.cpu.data     32422.507466                       # Average occupied blocks per requestor
system.l2.tags.occ_percent::.writebacks      0.000005                       # Average percentage of cache occupancy
system.l2.tags.occ_percent::.cpu.inst        0.000156                       # Average percentage of cache occupancy
system.l2.tags.occ_percent::.cpu.data        0.989456                       # Average percentage of cache occupancy
system.l2.tags.occ_percent::total            0.989618                       # Average percentage of cache occupancy
system.l2.tags.occ_task_id_blocks::1024         32768                       # Occupied blocks per task id
system.l2.tags.age_task_id_blocks_1024::0           76                       # Occupied blocks per task id
system.l2.tags.age_task_id_blocks_1024::1          679                       # Occupied blocks per task id
system.l2.tags.age_task_id_blocks_1024::2         6780                       # Occupied blocks per task id
system.l2.tags.age_task_id_blocks_1024::3        25233                       # Occupied blocks per task id
system.l2.tags.occ_task_id_percent::1024            1                       # Percentage of cache occupancy per task id
system.l2.tags.tag_accesses                  26325551                       # Number of tag accesses
system.l2.tags.data_accesses                 26325551                       # Number of data accesses
system.l2.tags.power_state.pwrStateResidencyTicks::UNDEFINED 705448977000                       # Cumulative time (in ticks) in various power states
system.mem_ctrls.avgPriority_.writebacks::samples   5230283.00                       # Average QoS priority value for accepted requests
system.mem_ctrls.avgPriority_.cpu.inst::samples       589.00                       # Average QoS priority value for accepted requests
system.mem_ctrls.avgPriority_.cpu.data::samples   5263303.00                       # Average QoS priority value for accepted requests
system.mem_ctrls.priorityMinLatency      0.000000018750                       # per QoS priority minimum request to response latency (s)
system.mem_ctrls.priorityMaxLatency      0.000557688500                       # per QoS priority maximum request to response latency (s)
system.mem_ctrls.numReadWriteTurnArounds       326410                       # Number of turnarounds from READ to WRITE
system.mem_ctrls.numWriteReadTurnArounds       326410                       # Number of turnarounds from WRITE to READ
system.mem_ctrls.numStayReadState            15610332                       # Number of times bus staying in READ state
system.mem_ctrls.numStayWriteState            4903908                       # Number of times bus staying in WRITE state
system.mem_ctrls.readReqs                     5263892                       # Number of read requests accepted
system.mem_ctrls.writeReqs                    5230283                       # Number of write requests accepted
system.mem_ctrls.readBursts                   5263892                       # Number of controller read bursts, including those serviced by the write queue
system.mem_ctrls.writeBursts                  5230283                       # Number of controller write bursts, including those merged in the write queue
system.mem_ctrls.servicedByWrQ                      0                       # Number of controller read bursts serviced by the write queue
system.mem_ctrls.mergedWrBursts                     0                       # Number of controller write bursts merged with an existing one
system.mem_ctrls.neitherReadNorWriteReqs            0                       # Number of requests that are neither read nor write
system.mem_ctrls.avgRdQLen                       1.00                       # Average read queue length when enqueuing
system.mem_ctrls.avgWrQLen                      25.44                       # Average write queue length when enqueuing
system.mem_ctrls.numRdRetry                         0                       # Number of times read queue was full causing retry
system.mem_ctrls.numWrRetry                         0                       # Number of times write queue was full causing retry
system.mem_ctrls.readPktSize::0                     0                       # Read request sizes (log2)
system.mem_ctrls.readPktSize::1                     0                       # Read request sizes (log2)
system.mem_ctrls.readPktSize::2                     0                       # Read request sizes (log2)
system.mem_ctrls.readPktSize::3                     0                       # Read request sizes (log2)
system.mem_ctrls.readPktSize::4                     0                       # Read request sizes (log2)
system.mem_ctrls.readPktSize::5                     0                       # Read request sizes (log2)
system.mem_ctrls.readPktSize::6               5263892                       # Read request sizes (log2)
system.mem_ctrls.writePktSize::0                    0                       # Write request sizes (log2)
system.mem_ctrls.writePktSize::1                    0                       # Write request sizes (log2)
system.mem_ctrls.writePktSize::2                    0                       # Write request sizes (log2)
system.mem_ctrls.writePktSize::3                    0                       # Write request sizes (log2)
system.mem_ctrls.writePktSize::4                    0                       # Write request sizes (log2)
system.mem_ctrls.writePktSize::5                    0                       # Write request sizes (log2)
system.mem_ctrls.writePktSize::6              5230283                       # Write request sizes (log2)
system.mem_ctrls.rdQLenPdf::0                 5263659                       # What read queue length does an incoming req see
system.mem_ctrls.rdQLenPdf::1                     212                       # What read queue length does an incoming req see
system.mem_ctrls.rdQLenPdf::2                      20                       # What read queue length does an incoming req see
system.mem_ctrls.rdQLenPdf::3                       1                       # What read queue length does an incoming req see
system.mem_ctrls.rdQLenPdf::4                       0                       # What read queue length does an incoming req see
system.mem_ctrls.rdQLenPdf::5                       0                       # What read queue length does an incoming req see
system.mem_ctrls.rdQLenPdf::6                       0                       # What read queue length does an incoming req see
system.mem_ctrls.rdQLenPdf::7                       0                       # What read queue length does an incoming req see
system.mem_ctrls.rdQLenPdf::8                       0                       # What read queue length does an incoming req see
system.mem_ctrls.rdQLenPdf::9                       0                       # What read queue length does an incoming req see
[...]
system.mem_ctrls.dram.bw_write::.writebacks    474503646                       # Write bandwidth from this memory (bytes/s)
system.mem_ctrls.dram.bw_write::total       474503646                       # Write bandwidth from this memory (bytes/s)
system.mem_ctrls.dram.bw_total::.writebacks    474503646                       # Total bandwidth to/from this memory (bytes/s)
system.mem_ctrls.dram.bw_total::.cpu.inst        53435                       # Total bandwidth to/from this memory (bytes/s)
system.mem_ctrls.dram.bw_total::.cpu.data    477499299                       # Total bandwidth to/from this memory (bytes/s)
system.mem_ctrls.dram.bw_total::total       952056381                       # Total bandwidth to/from this memory (bytes/s)
system.mem_ctrls.dram.readBursts              5263892                       # Number of DRAM read bursts
system.mem_ctrls.dram.writeBursts             5230256                       # Number of DRAM write bursts
system.mem_ctrls.dram.perBankRdBursts::0       328922                       # Per bank write bursts
system.mem_ctrls.dram.perBankRdBursts::1       329089                       # Per bank write bursts
system.mem_ctrls.dram.perBankRdBursts::2       329059                       # Per bank write bursts
system.mem_ctrls.dram.perBankRdBursts::3       329078                       # Per bank write bursts
system.mem_ctrls.dram.perBankRdBursts::4       328991                       # Per bank write bursts
system.mem_ctrls.dram.perBankRdBursts::5       329077                       # Per bank write bursts
system.mem_ctrls.dram.perBankRdBursts::6       329081                       # Per bank write bursts
system.mem_ctrls.dram.perBankRdBursts::7       329025                       # Per bank write bursts
system.mem_ctrls.dram.perBankRdBursts::8       328903                       # Per bank write bursts
system.mem_ctrls.dram.perBankRdBursts::9       328864                       # Per bank write bursts
system.mem_ctrls.dram.perBankRdBursts::10       328903                       # Per bank write bursts
system.mem_ctrls.dram.perBankRdBursts::11       328922                       # Per bank write bursts
system.mem_ctrls.dram.perBankRdBursts::12       329020                       # Per bank write bursts
system.mem_ctrls.dram.perBankRdBursts::13       329022                       # Per bank write bursts
system.mem_ctrls.dram.perBankRdBursts::14       328993                       # Per bank write bursts
system.mem_ctrls.dram.perBankRdBursts::15       328943                       # Per bank write bursts
system.mem_ctrls.dram.perBankWrBursts::0       326789                       # Per bank write bursts
system.mem_ctrls.dram.perBankWrBursts::1       326941                       # Per bank write bursts
system.mem_ctrls.dram.perBankWrBursts::2       326929                       # Per bank write bursts
system.mem_ctrls.dram.perBankWrBursts::3       327006                       # Per bank write bursts
system.mem_ctrls.dram.perBankWrBursts::4       326926                       # Per bank write bursts
system.mem_ctrls.dram.perBankWrBursts::5       326985                       # Per bank write bursts
system.mem_ctrls.dram.perBankWrBursts::6       326986                       # Per bank write bursts
system.mem_ctrls.dram.perBankWrBursts::7       326958                       # Per bank write bursts
system.mem_ctrls.dram.perBankWrBursts::8       326785                       # Per bank write bursts
system.mem_ctrls.dram.perBankWrBursts::9       326784                       # Per bank write bursts
system.mem_ctrls.dram.perBankWrBursts::10       326784                       # Per bank write bursts
system.mem_ctrls.dram.perBankWrBursts::11       326839                       # Per bank write bursts
system.mem_ctrls.dram.perBankWrBursts::12       326913                       # Per bank write bursts
system.mem_ctrls.dram.perBankWrBursts::13       326905                       # Per bank write bursts
system.mem_ctrls.dram.perBankWrBursts::14       326861                       # Per bank write bursts
system.mem_ctrls.dram.perBankWrBursts::15       326865                       # Per bank write bursts
system.mem_ctrls.dram.totQLat             52001642000                       # Total ticks spent queuing
system.mem_ctrls.dram.totBusLat           26319460000                       # Total ticks spent in databus transfers
system.mem_ctrls.dram.totMemAccLat       150699617000                       # Total ticks spent from burst creation until serviced by the DRAM
system.mem_ctrls.dram.avgQLat                 9878.93                       # Average queueing delay per DRAM burst
system.mem_ctrls.dram.avgBusLat               5000.00                       # Average bus latency per DRAM burst
system.mem_ctrls.dram.avgMemAccLat           28628.93                       # Average memory access latency per DRAM burst
system.mem_ctrls.dram.readRowHits             4806827                       # Number of row buffer hits during reads
system.mem_ctrls.dram.writeRowHits            4864125                       # Number of row buffer hits during writes
system.mem_ctrls.dram.readRowHitRate            91.32                       # Row buffer hit rate for reads
system.mem_ctrls.dram.writeRowHitRate           93.00                       # Row buffer hit rate for writes
system.mem_ctrls.dram.bytesPerActivate::samples       823195                       # Bytes accessed per row activation
system.mem_ctrls.dram.bytesPerActivate::mean   815.875743                       # Bytes accessed per row activation
system.mem_ctrls.dram.bytesPerActivate::gmean   695.820035                       # Bytes accessed per row activation
system.mem_ctrls.dram.bytesPerActivate::stdev   315.513922                       # Bytes accessed per row activation
system.mem_ctrls.dram.bytesPerActivate::0-127        34428      4.18%      4.18% # Bytes accessed per row activation
system.mem_ctrls.dram.bytesPerActivate::128-255        30593      3.72%      7.90% # Bytes accessed per row activation
system.mem_ctrls.dram.bytesPerActivate::256-383        55395      6.73%     14.63% # Bytes accessed per row activation
system.mem_ctrls.dram.bytesPerActivate::384-511        45394      5.51%     20.14% # Bytes accessed per row activation
system.mem_ctrls.dram.bytesPerActivate::512-639        23703      2.88%     23.02% # Bytes accessed per row activation
system.mem_ctrls.dram.bytesPerActivate::640-767        52654      6.40%     29.42% # Bytes accessed per row activation
system.mem_ctrls.dram.bytesPerActivate::768-895        38564      4.68%     34.10% # Bytes accessed per row activation
system.mem_ctrls.dram.bytesPerActivate::896-1023        34625      4.21%     38.31% # Bytes accessed per row activation
system.mem_ctrls.dram.bytesPerActivate::1024-1151       507839     61.69%    100.00% # Bytes accessed per row activation
system.mem_ctrls.dram.bytesPerActivate::total       823195                       # Bytes accessed per row activation
system.mem_ctrls.dram.bytesRead             336889088                       # Total number of bytes read from DRAM
system.mem_ctrls.dram.bytesWritten          334736384                       # Total number of bytes written to DRAM
system.mem_ctrls.dram.avgRdBW              477.552734                       # Average DRAM read bandwidth in MiBytes/s
system.mem_ctrls.dram.avgWrBW              474.501197                       # Average DRAM write bandwidth in MiBytes/s
system.mem_ctrls.dram.peakBW                 12800.00                       # Theoretical peak bandwidth in MiByte/s
system.mem_ctrls.dram.busUtil                    7.44                       # Data bus utilization in percentage
system.mem_ctrls.dram.busUtilRead                3.73                       # Data bus utilization in percentage for reads
system.mem_ctrls.dram.busUtilWrite               3.71                       # Data bus utilization in percentage for writes
system.mem_ctrls.dram.pageHitRate               92.16                       # Row buffer hit rate, read and write combined
system.mem_ctrls.dram.power_state.pwrStateResidencyTicks::UNDEFINED 705448977000                       # Cumulative time (in ticks) in various power states
system.mem_ctrls.dram.rank0.actEnergy      2938616940                       # Energy for activate commands per rank (pJ)
system.mem_ctrls.dram.rank0.preEnergy      1561908150                       # Energy for precharge commands per rank (pJ)
system.mem_ctrls.dram.rank0.readEnergy    18794779080                       # Energy for read commands per rank (pJ)
system.mem_ctrls.dram.rank0.writeEnergy   13653014400                       # Energy for write commands per rank (pJ)
system.mem_ctrls.dram.rank0.refreshEnergy 55686998640.000008                       # Energy for refresh commands per rank (pJ)
system.mem_ctrls.dram.rank0.actBackEnergy 166263345030                       # Energy for active background per rank (pJ)
system.mem_ctrls.dram.rank0.preBackEnergy 130881169440                       # Energy for precharge background per rank (pJ)
system.mem_ctrls.dram.rank0.actPowerDownEnergy            0                       # Energy for active power-down per rank (pJ)
system.mem_ctrls.dram.rank0.prePowerDownEnergy            0                       # Energy for precharge power-down per rank (pJ)
system.mem_ctrls.dram.rank0.selfRefreshEnergy            0                       # Energy for self refresh per rank (pJ)
system.mem_ctrls.dram.rank0.totalEnergy  389779831680                       # Total energy per rank (pJ)
system.mem_ctrls.dram.rank0.averagePower   552.527319                       # Core power per rank (mW)
system.mem_ctrls.dram.rank0.totalIdleTime            0                       # Total Idle time Per DRAM Rank
system.mem_ctrls.dram.rank0.pwrStateTime::IDLE 335746084500                       # Time in different power states
system.mem_ctrls.dram.rank0.pwrStateTime::REF  23556260000                       # Time in different power states
system.mem_ctrls.dram.rank0.pwrStateTime::SREF            0                       # Time in different power states
system.mem_ctrls.dram.rank0.pwrStateTime::PRE_PDN            0                       # Time in different power states
system.mem_ctrls.dram.rank0.pwrStateTime::ACT 346146632500                       # Time in different power states
system.mem_ctrls.dram.rank0.pwrStateTime::ACT_PDN            0                       # Time in different power states
system.mem_ctrls.dram.rank1.actEnergy      2939002500                       # Energy for activate commands per rank (pJ)
system.mem_ctrls.dram.rank1.preEnergy      1562116875                       # Energy for precharge commands per rank (pJ)
system.mem_ctrls.dram.rank1.readEnergy    18789409800                       # Energy for read commands per rank (pJ)
system.mem_ctrls.dram.rank1.writeEnergy   13648921920                       # Energy for write commands per rank (pJ)
system.mem_ctrls.dram.rank1.refreshEnergy 55686998640.000008                       # Energy for refresh commands per rank (pJ)
system.mem_ctrls.dram.rank1.actBackEnergy 166215239310                       # Energy for active background per rank (pJ)
system.mem_ctrls.dram.rank1.preBackEnergy 130921679520                       # Energy for precharge background per rank (pJ)
system.mem_ctrls.dram.rank1.actPowerDownEnergy            0                       # Energy for active power-down per rank (pJ)
system.mem_ctrls.dram.rank1.prePowerDownEnergy            0                       # Energy for precharge power-down per rank (pJ)
system.mem_ctrls.dram.rank1.selfRefreshEnergy            0                       # Energy for self refresh per rank (pJ)
system.mem_ctrls.dram.rank1.totalEnergy  389763368565                       # Total energy per rank (pJ)
system.mem_ctrls.dram.rank1.averagePower   552.503982                       # Core power per rank (mW)
system.mem_ctrls.dram.rank1.totalIdleTime            0                       # Total Idle time Per DRAM Rank
system.mem_ctrls.dram.rank1.pwrStateTime::IDLE 335851416500                       # Time in different power states
system.mem_ctrls.dram.rank1.pwrStateTime::REF  23556260000                       # Time in different power states
system.mem_ctrls.dram.rank1.pwrStateTime::SREF            0                       # Time in different power states
system.mem_ctrls.dram.rank1.pwrStateTime::PRE_PDN            0                       # Time in different power states
system.mem_ctrls.dram.rank1.pwrStateTime::ACT 346041300500                       # Time in different power states
system.mem_ctrls.dram.rank1.pwrStateTime::ACT_PDN            0                       # Time in different power states
system.mem_ctrls.power_state.pwrStateResidencyTicks::UNDEFINED 705448977000                       # Cumulative time (in ticks) in various power states
system.membus.trans_dist::ReadResp                870                       # Transaction distribution
system.membus.trans_dist::WritebackDirty      5230283                       # Transaction distribution
system.membus.trans_dist::CleanEvict              319                       # Transaction distribution
system.membus.trans_dist::ReadExReq           5263022                       # Transaction distribution
system.membus.trans_dist::ReadExResp          5263022                       # Transaction distribution
system.membus.trans_dist::ReadSharedReq           870                       # Transaction distribution
system.membus.pkt_count_system.l2.mem_side_port::system.mem_ctrls.port     15758386                       # Packet count per connected requestor and responder (bytes)
system.membus.pkt_count::total               15758386                       # Packet count per connected requestor and responder (bytes)
system.membus.pkt_size_system.l2.mem_side_port::system.mem_ctrls.port    671627200                       # Cumulative packet size per connected requestor and responder (bytes)
system.membus.pkt_size::total               671627200                       # Cumulative packet size per connected requestor and responder (bytes)
system.membus.snoops                                0                       # Total snoops (count)
system.membus.snoopTraffic                          0                       # Total snoop traffic (bytes)
system.membus.snoop_fanout::samples           5263892                       # Request fanout histogram
system.membus.snoop_fanout::mean                    0                       # Request fanout histogram
system.membus.snoop_fanout::stdev                   0                       # Request fanout histogram
system.membus.snoop_fanout::underflows              0      0.00%      0.00% # Request fanout histogram
system.membus.snoop_fanout::0                 5263892    100.00%    100.00% # Request fanout histogram
system.membus.snoop_fanout::1                       0      0.00%    100.00% # Request fanout histogram
system.membus.snoop_fanout::overflows               0      0.00%    100.00% # Request fanout histogram
system.membus.snoop_fanout::min_value               0                       # Request fanout histogram
system.membus.snoop_fanout::max_value               0                       # Request fanout histogram
system.membus.snoop_fanout::total             5263892                       # Request fanout histogram
system.membus.power_state.pwrStateResidencyTicks::UNDEFINED 705448977000                       # Cumulative time (in ticks) in various power states
system.membus.reqLayer0.occupancy         31415626000                       # Layer occupancy (ticks)
system.membus.reqLayer0.utilization               4.5                       # Layer utilization (%)
system.membus.respLayer1.occupancy        27696737750                       # Layer occupancy (ticks)
system.membus.respLayer1.utilization              3.9                       # Layer utilization (%)
system.tol2bus.trans_dist::ReadResp              2137                       # Transaction distribution
system.tol2bus.trans_dist::WritebackDirty     10493679                       # Transaction distribution
system.tol2bus.trans_dist::WritebackClean          121                       # Transaction distribution
system.tol2bus.trans_dist::CleanEvict            2132                       # Transaction distribution
system.tol2bus.trans_dist::ReadExReq          5264158                       # Transaction distribution
system.tol2bus.trans_dist::ReadExResp         5264158                       # Transaction distribution
system.tol2bus.trans_dist::ReadCleanReq           631                       # Transaction distribution
system.tol2bus.trans_dist::ReadSharedReq         1506                       # Transaction distribution
system.tol2bus.pkt_count_system.cpu.icache.mem_side_port::system.l2.cpu_side_port         1383                       # Packet count per connected requestor and responder (bytes)
system.tol2bus.pkt_count_system.cpu.dcache.mem_side_port::system.l2.cpu_side_port     15795968                       # Packet count per connected requestor and responder (bytes)
system.tol2bus.pkt_count::total              15797351                       # Packet count per connected requestor and responder (bytes)
system.tol2bus.pkt_size_system.cpu.icache.mem_side_port::system.l2.cpu_side_port        48128                       # Cumulative packet size per connected requestor and responder (bytes)
system.tol2bus.pkt_size_system.cpu.dcache.mem_side_port::system.l2.cpu_side_port    673859840                       # Cumulative packet size per connected requestor and responder (bytes)
system.tol2bus.pkt_size::total              673907968                       # Cumulative packet size per connected requestor and responder (bytes)
system.tol2bus.snoops                         5231171                       # Total snoops (count)
system.tol2bus.snoopTraffic                 334738112                       # Total snoop traffic (bytes)
system.tol2bus.snoop_fanout::samples         10497466                       # Request fanout histogram
system.tol2bus.snoop_fanout::mean            0.000078                       # Request fanout histogram
system.tol2bus.snoop_fanout::stdev           0.008832                       # Request fanout histogram
system.tol2bus.snoop_fanout::underflows             0      0.00%      0.00% # Request fanout histogram
system.tol2bus.snoop_fanout::0               10496647     99.99%     99.99% # Request fanout histogram
system.tol2bus.snoop_fanout::1                    819      0.01%    100.00% # Request fanout histogram
system.tol2bus.snoop_fanout::2                      0      0.00%    100.00% # Request fanout histogram
system.tol2bus.snoop_fanout::overflows              0      0.00%    100.00% # Request fanout histogram
system.tol2bus.snoop_fanout::min_value              0                       # Request fanout histogram
system.tol2bus.snoop_fanout::max_value              1                       # Request fanout histogram
system.tol2bus.snoop_fanout::total           10497466                       # Request fanout histogram
system.tol2bus.power_state.pwrStateResidencyTicks::UNDEFINED 705448977000                       # Cumulative time (in ticks) in various power states
system.tol2bus.reqLayer0.occupancy        21058090000                       # Layer occupancy (ticks)
system.tol2bus.reqLayer0.utilization              3.0                       # Layer utilization (%)
system.tol2bus.respLayer0.occupancy           1893999                       # Layer occupancy (ticks)
system.tol2bus.respLayer0.utilization             0.0                       # Layer utilization (%)
system.tol2bus.respLayer1.occupancy       15796998993                       # Layer occupancy (ticks)
system.tol2bus.respLayer1.utilization             2.2                       # Layer utilization (%)
system.voltage_domain.voltage                       1                       # Voltage in Volts

---------- End Simulation Statistics   ----------
