
---------- Begin Simulation Statistics ----------
final_tick                               265098310000                       # Number of ticks from beginning of simulation (restored from checkpoints and never reset)
host_inst_rate                                 178154                       # Simulator instruction rate (inst/s)
host_mem_usage                                 653052                       # Number of bytes of host memory used
host_op_rate                                   178161                       # Simulator op (including micro ops) rate (op/s)
host_seconds                                   561.31                       # Real time elapsed on the host
host_tick_rate                              472283535                       # Simulator tick rate (ticks/s)
sim_freq                                 1000000000000                       # Frequency of simulated ticks
sim_insts                                   100000000                       # Number of instructions simulated
sim_ops                                     100003676                       # Number of ops (including micro ops) simulated
sim_seconds                                  0.265098                       # Number of seconds simulated
sim_ticks                                265098310000                       # Number of ticks simulated
system.cpu.committedInsts                   100000000                       # Number of instructions committed
system.cpu.committedOps                     100003676                       # Number of ops (including micro ops) committed
system.cpu.cpi                               2.650983                       # CPI: cycles per instruction
system.cpu.discardedOps                         21226                       # Number of ops (including micro ops) which were discarded before commit
system.cpu.idleCycles                       147677772                       # Total number of cycles that the object has spent stopped
system.cpu.ipc                               0.377219                       # IPC: instructions per cycle
system.cpu.numCycles                        265098310                       # number of cpu cycles simulated
system.cpu.numFetchSuspends                         0                       # Number of times Execute suspended instruction fetching
system.cpu.numWorkItemsCompleted                    0                       # number of work items this cpu completed
system.cpu.numWorkItemsStarted                      0                       # number of work items this cpu started
system.cpu.op_class_0::No_OpClass                   0      0.00%      0.00% # Class of committed instruction
system.cpu.op_class_0::IntAlu                49995472     49.99%     49.99% # Class of committed instruction
system.cpu.op_class_0::IntMult                     88      0.00%     49.99% # Class of committed instruction
system.cpu.op_class_0::IntDiv                       0      0.00%     49.99% # Class of committed instruction
system.cpu.op_class_0::FloatAdd                     0      0.00%     49.99% # Class of committed instruction
system.cpu.op_class_0::FloatCmp                     0      0.00%     49.99% # Class of committed instruction
system.cpu.op_class_0::FloatCvt                     0      0.00%     49.99% # Class of committed instruction
system.cpu.op_class_0::FloatMult                    0      0.00%     49.99% # Class of committed instruction
system.cpu.op_class_0::FloatMultAcc                 0      0.00%     49.99% # Class of committed instruction
system.cpu.op_class_0::FloatDiv                     0      0.00%     49.99% # Class of committed instruction
system.cpu.op_class_0::FloatMisc                    0      0.00%     49.99% # Class of committed instruction
system.cpu.op_class_0::FloatSqrt                    0      0.00%     49.99% # Class of committed instruction
system.cpu.op_class_0::SimdAdd                      0      0.00%     49.99% # Class of committed instruction
system.cpu.op_class_0::SimdAddAcc                   0      0.00%     49.99% # Class of committed instruction
system.cpu.op_class_0::SimdAlu                      0      0.00%     49.99% # Class of committed instruction
system.cpu.op_class_0::SimdCmp                      0      0.00%     49.99% # Class of committed instruction
system.cpu.op_class_0::SimdCvt                      0      0.00%     49.99% # Class of committed instruction
system.cpu.op_class_0::SimdMisc                     0      0.00%     49.99% # Class of committed instruction
system.cpu.op_class_0::SimdMult                     0      0.00%     49.99% # Class of committed instruction
system.cpu.op_class_0::SimdMultAcc                  0      0.00%     49.99% # Class of committed instruction
system.cpu.op_class_0::SimdShift                    0      0.00%     49.99% # Class of committed instruction
system.cpu.op_class_0::SimdShiftAcc                 0      0.00%     49.99% # Class of committed instruction
system.cpu.op_class_0::SimdDiv                      0      0.00%     49.99% # Class of committed instruction
system.cpu.op_class_0::SimdSqrt                     0      0.00%     49.99% # Class of committed instruction
system.cpu.op_class_0::SimdFloatAdd                 0      0.00%     49.99% # Class of committed instruction
system.cpu.op_class_0::SimdFloatAlu                 0      0.00%     49.99% # Class of committed instruction
system.cpu.op_class_0::SimdFloatCmp                 2      0.00%     49.99% # Class of committed instruction
system.cpu.op_class_0::SimdFloatCvt                 0      0.00%     49.99% # Class of committed instruction
system.cpu.op_class_0::SimdFloatDiv                 0      0.00%     49.99% # Class of committed instruction
system.cpu.op_class_0::SimdFloatMisc               22      0.00%     49.99% # Class of committed instruction
system.cpu.op_class_0::SimdFloatMult                0      0.00%     49.99% # Class of committed instruction
system.cpu.op_class_0::SimdFloatMultAcc             0      0.00%     49.99% # Class of committed instruction
system.cpu.op_class_0::SimdFloatSqrt                0      0.00%     49.99% # Class of committed instruction
system.cpu.op_class_0::SimdReduceAdd                0      0.00%     49.99% # Class of committed instruction
system.cpu.op_class_0::SimdReduceAlu                0      0.00%     49.99% # Class of committed instruction
system.cpu.op_class_0::SimdReduceCmp                0      0.00%     49.99% # Class of committed instruction
system.cpu.op_class_0::SimdFloatReduceAdd            0      0.00%     49.99% # Class of committed instruction
system.cpu.op_class_0::SimdFloatReduceCmp            0      0.00%     49.99% # Class of committed instruction
system.cpu.op_class_0::SimdAes                      0      0.00%     49.99% # Class of committed instruction
system.cpu.op_class_0::SimdAesMix                   0      0.00%     49.99% # Class of committed instruction
system.cpu.op_class_0::SimdSha1Hash                 0      0.00%     49.99% # Class of committed instruction
system.cpu.op_class_0::SimdSha1Hash2                0      0.00%     49.99% # Class of committed instruction
system.cpu.op_class_0::SimdSha256Hash               0      0.00%     49.99% # Class of committed instruction
system.cpu.op_class_0::SimdSha256Hash2              0      0.00%     49.99% # Class of committed instruction
system.cpu.op_class_0::SimdShaSigma2                0      0.00%     49.99% # Class of committed instruction
system.cpu.op_class_0::SimdShaSigma3                0      0.00%     49.99% # Class of committed instruction
system.cpu.op_class_0::SimdPredAlu                  0      0.00%     49.99% # Class of committed instruction
system.cpu.op_class_0::MemRead               36892238     36.89%     86.88% # Class of committed instruction
system.cpu.op_class_0::MemWrite              13115854     13.12%    100.00% # Class of committed instruction
system.cpu.op_class_0::FloatMemRead                 0      0.00%    100.00% # Class of committed instruction
system.cpu.op_class_0::FloatMemWrite                0      0.00%    100.00% # Class of committed instruction
system.cpu.op_class_0::IprAccess                    0      0.00%    100.00% # Class of committed instruction
system.cpu.op_class_0::InstPrefetch                 0      0.00%    100.00% # Class of committed instruction
system.cpu.op_class_0::total                100003676                       # Class of committed instruction
system.cpu.tickCycles                       117420538                       # Number of cycles that the object actually ticked
system.cpu.workload.numSyscalls                    19                       # Number of system calls
system.membus.snoop_filter.hit_multi_requests            0                       # Number of requests hitting in the snoop filter with multiple (>1) holders of the requested data.
system.membus.snoop_filter.hit_multi_snoops            0                       # Number of snoops hitting in the snoop filter with multiple (>1) holders of the requested data.
system.membus.snoop_filter.hit_single_requests      1483717                       # Number of requests hitting in the snoop filter with a single holder of the requested data.
system.membus.snoop_filter.hit_single_snoops            0                       # Number of snoops hitting in the snoop filter with a single holder of the requested data.
system.membus.snoop_filter.tot_requests       2971829                       # Total number of requests made to the snoop filter.
system.membus.snoop_filter.tot_snoops               0                       # Total number of snoops made to the snoop filter.
system.tol2bus.snoop_filter.hit_multi_requests        11657                       # Number of requests hitting in the snoop filter with multiple (>1) holders of the requested data.
system.tol2bus.snoop_filter.hit_multi_snoops            0                       # Number of snoops hitting in the snoop filter with multiple (>1) holders of the requested data.
system.tol2bus.snoop_filter.hit_single_requests      1528268                       # Number of requests hitting in the snoop filter with a single holder of the requested data.
system.tol2bus.snoop_filter.hit_single_snoops          299                       # Number of snoops hitting in the snoop filter with a single holder of the requested data.
system.tol2bus.snoop_filter.tot_requests      3057346                       # Total number of requests made to the snoop filter.
system.tol2bus.snoop_filter.tot_snoops            299                       # Total number of snoops made to the snoop filter.
system.clk_domain.clock                          1000                       # Clock period in ticks
system.cpu.branchPred.lookups                  606609                       # Number of BP lookups
system.cpu.branchPred.condPredicted            604538                       # Number of conditional branches predicted
system.cpu.branchPred.condIncorrect               825                       # Number of conditional branches incorrect
system.cpu.branchPred.BTBLookups               602552                       # Number of BTB lookups
system.cpu.branchPred.BTBHits                  601452                       # Number of BTB hits
system.cpu.branchPred.BTBHitPct             99.817443                       # BTB Hit Percentage
system.cpu.branchPred.RASUsed                     555                       # Number of times the RAS was used to get a target.
system.cpu.branchPred.RASIncorrect                  0                       # Number of incorrect RAS predictions.
system.cpu.branchPred.indirectLookups             368                       # Number of indirect predictor lookups.
system.cpu.branchPred.indirectHits                173                       # Number of indirect target hits.
system.cpu.branchPred.indirectMisses              195                       # Number of indirect misses.
system.cpu.branchPred.indirectMispredicted          102                       # Number of mispredicted indirect branches.
system.cpu.dcache.demand_hits::.cpu.data     45762510                       # number of demand (read+write) hits
system.cpu.dcache.demand_hits::total         45762510                       # number of demand (read+write) hits
system.cpu.dcache.overall_hits::.cpu.data     45762545                       # number of overall hits
system.cpu.dcache.overall_hits::total        45762545                       # number of overall hits
system.cpu.dcache.demand_misses::.cpu.data      3032644                       # number of demand (read+write) misses
system.cpu.dcache.demand_misses::total        3032644                       # number of demand (read+write) misses
system.cpu.dcache.overall_misses::.cpu.data      3032662                       # number of overall misses
system.cpu.dcache.overall_misses::total       3032662                       # number of overall misses
system.cpu.dcache.demand_miss_latency::.cpu.data 304939363000                       # number of demand (read+write) miss cycles
system.cpu.dcache.demand_miss_latency::total 304939363000                       # number of demand (read+write) miss cycles
system.cpu.dcache.overall_miss_latency::.cpu.data 304939363000                       # number of overall miss cycles
system.cpu.dcache.overall_miss_latency::total 304939363000                       # number of overall miss cycles
system.cpu.dcache.demand_accesses::.cpu.data     48795154                       # number of demand (read+write) accesses
system.cpu.dcache.demand_accesses::total     48795154                       # number of demand (read+write) accesses
system.cpu.dcache.overall_accesses::.cpu.data     48795207                       # number of overall (read+write) accesses
system.cpu.dcache.overall_accesses::total     48795207                       # number of overall (read+write) accesses
system.cpu.dcache.demand_miss_rate::.cpu.data     0.062151                       # miss rate for demand accesses
system.cpu.dcache.demand_miss_rate::total     0.062151                       # miss rate for demand accesses
system.cpu.dcache.overall_miss_rate::.cpu.data     0.062151                       # miss rate for overall accesses
system.cpu.dcache.overall_miss_rate::total     0.062151                       # miss rate for overall accesses
system.cpu.dcache.demand_avg_miss_latency::.cpu.data 100552.311119                       # average overall miss latency
system.cpu.dcache.demand_avg_miss_latency::total 100552.311119                       # average overall miss latency
system.cpu.dcache.overall_avg_miss_latency::.cpu.data 100551.714302                       # average overall miss latency
system.cpu.dcache.overall_avg_miss_latency::total 100551.714302                       # average overall miss latency
system.cpu.dcache.blocked_cycles::no_mshrs            0                       # number of cycles access was blocked
system.cpu.dcache.blocked_cycles::no_targets            0                       # number of cycles access was blocked
system.cpu.dcache.blocked::no_mshrs                 0                       # number of cycles access was blocked
system.cpu.dcache.blocked::no_targets               0                       # number of cycles access was blocked
system.cpu.dcache.avg_blocked_cycles::no_mshrs          nan                       # average number of cycles each access was blocked
system.cpu.dcache.avg_blocked_cycles::no_targets          nan                       # average number of cycles each access was blocked
system.cpu.dcache.writebacks::.writebacks      1516069                       # number of writebacks
system.cpu.dcache.writebacks::total           1516069                       # number of writebacks
system.cpu.dcache.demand_mshr_hits::.cpu.data      1504336                       # number of demand (read+write) MSHR hits
system.cpu.dcache.demand_mshr_hits::total      1504336                       # number of demand (read+write) MSHR hits
system.cpu.dcache.overall_mshr_hits::.cpu.data      1504336                       # number of overall MSHR hits
system.cpu.dcache.overall_mshr_hits::total      1504336                       # number of overall MSHR hits
system.cpu.dcache.demand_mshr_misses::.cpu.data      1528308                       # number of demand (read+write) MSHR misses
system.cpu.dcache.demand_mshr_misses::total      1528308                       # number of demand (read+write) MSHR misses
system.cpu.dcache.overall_mshr_misses::.cpu.data      1528323                       # number of overall MSHR misses
system.cpu.dcache.overall_mshr_misses::total      1528323                       # number of overall MSHR misses
system.cpu.dcache.demand_mshr_miss_latency::.cpu.data 157965642000                       # number of demand (read+write) MSHR miss cycles
system.cpu.dcache.demand_mshr_miss_latency::total 157965642000                       # number of demand (read+write) MSHR miss cycles
system.cpu.dcache.overall_mshr_miss_latency::.cpu.data 157967049000                       # number of overall MSHR miss cycles
system.cpu.dcache.overall_mshr_miss_latency::total 157967049000                       # number of overall MSHR miss cycles
system.cpu.dcache.demand_mshr_miss_rate::.cpu.data     0.031321                       # mshr miss rate for demand accesses
system.cpu.dcache.demand_mshr_miss_rate::total     0.031321                       # mshr miss rate for demand accesses
system.cpu.dcache.overall_mshr_miss_rate::.cpu.data     0.031321                       # mshr miss rate for overall accesses
system.cpu.dcache.overall_mshr_miss_rate::total     0.031321                       # mshr miss rate for overall accesses
system.cpu.dcache.demand_avg_mshr_miss_latency::.cpu.data 103359.821450                       # average overall mshr miss latency
system.cpu.dcache.demand_avg_mshr_miss_latency::total 103359.821450                       # average overall mshr miss latency
system.cpu.dcache.overall_avg_mshr_miss_latency::.cpu.data 103359.727623                       # average overall mshr miss latency
system.cpu.dcache.overall_avg_mshr_miss_latency::total 103359.727623                       # average overall mshr miss latency
system.cpu.dcache.replacements                1527811                       # number of replacements
system.cpu.dcache.ReadReq_hits::.cpu.data     35679259                       # number of ReadReq hits
system.cpu.dcache.ReadReq_hits::total        35679259                       # number of ReadReq hits
system.cpu.dcache.ReadReq_misses::.cpu.data        23386                       # number of ReadReq misses
system.cpu.dcache.ReadReq_misses::total         23386                       # number of ReadReq misses
system.cpu.dcache.ReadReq_miss_latency::.cpu.data   1069763000                       # number of ReadReq miss cycles
system.cpu.dcache.ReadReq_miss_latency::total   1069763000                       # number of ReadReq miss cycles
system.cpu.dcache.ReadReq_accesses::.cpu.data     35702645                       # number of ReadReq accesses(hits+misses)
system.cpu.dcache.ReadReq_accesses::total     35702645                       # number of ReadReq accesses(hits+misses)
system.cpu.dcache.ReadReq_miss_rate::.cpu.data     0.000655                       # miss rate for ReadReq accesses
system.cpu.dcache.ReadReq_miss_rate::total     0.000655                       # miss rate for ReadReq accesses
system.cpu.dcache.ReadReq_avg_miss_latency::.cpu.data 45743.735568                       # average ReadReq miss latency
system.cpu.dcache.ReadReq_avg_miss_latency::total 45743.735568                       # average ReadReq miss latency
system.cpu.dcache.ReadReq_mshr_hits::.cpu.data            8                       # number of ReadReq MSHR hits
system.cpu.dcache.ReadReq_mshr_hits::total            8                       # number of ReadReq MSHR hits
system.cpu.dcache.ReadReq_mshr_misses::.cpu.data        23378                       # number of ReadReq MSHR misses
system.cpu.dcache.ReadReq_mshr_misses::total        23378                       # number of ReadReq MSHR misses
system.cpu.dcache.ReadReq_mshr_miss_latency::.cpu.data   1022386000                       # number of ReadReq MSHR miss cycles
system.cpu.dcache.ReadReq_mshr_miss_latency::total   1022386000                       # number of ReadReq MSHR miss cycles
system.cpu.dcache.ReadReq_mshr_miss_rate::.cpu.data     0.000655                       # mshr miss rate for ReadReq accesses
system.cpu.dcache.ReadReq_mshr_miss_rate::total     0.000655                       # mshr miss rate for ReadReq accesses
system.cpu.dcache.ReadReq_avg_mshr_miss_latency::.cpu.data 43732.825734                       # average ReadReq mshr miss latency
system.cpu.dcache.ReadReq_avg_mshr_miss_latency::total 43732.825734                       # average ReadReq mshr miss latency
system.cpu.dcache.WriteReq_hits::.cpu.data     10083251                       # number of WriteReq hits
system.cpu.dcache.WriteReq_hits::total       10083251                       # number of WriteReq hits
system.cpu.dcache.WriteReq_misses::.cpu.data      3009258                       # number of WriteReq misses
system.cpu.dcache.WriteReq_misses::total      3009258                       # number of WriteReq misses
system.cpu.dcache.WriteReq_miss_latency::.cpu.data 303869600000                       # number of WriteReq miss cycles
system.cpu.dcache.WriteReq_miss_latency::total 303869600000                       # number of WriteReq miss cycles
system.cpu.dcache.WriteReq_accesses::.cpu.data     13092509                       # number of WriteReq accesses(hits+misses)
system.cpu.dcache.WriteReq_accesses::total     13092509                       # number of WriteReq accesses(hits+misses)
system.cpu.dcache.WriteReq_miss_rate::.cpu.data     0.229846                       # miss rate for WriteReq accesses
system.cpu.dcache.WriteReq_miss_rate::total     0.229846                       # miss rate for WriteReq accesses
system.cpu.dcache.WriteReq_avg_miss_latency::.cpu.data 100978.247794                       # average WriteReq miss latency
system.cpu.dcache.WriteReq_avg_miss_latency::total 100978.247794                       # average WriteReq miss latency
system.cpu.dcache.WriteReq_mshr_hits::.cpu.data      1504328                       # number of WriteReq MSHR hits
system.cpu.dcache.WriteReq_mshr_hits::total      1504328                       # number of WriteReq MSHR hits
system.cpu.dcache.WriteReq_mshr_misses::.cpu.data      1504930                       # number of WriteReq MSHR misses
system.cpu.dcache.WriteReq_mshr_misses::total      1504930                       # number of WriteReq MSHR misses
system.cpu.dcache.WriteReq_mshr_miss_latency::.cpu.data 156943256000                       # number of WriteReq MSHR miss cycles
system.cpu.dcache.WriteReq_mshr_miss_latency::total 156943256000                       # number of WriteReq MSHR miss cycles
system.cpu.dcache.WriteReq_mshr_miss_rate::.cpu.data     0.114946                       # mshr miss rate for WriteReq accesses
system.cpu.dcache.WriteReq_mshr_miss_rate::total     0.114946                       # mshr miss rate for WriteReq accesses
system.cpu.dcache.WriteReq_avg_mshr_miss_latency::.cpu.data 104286.083738                       # average WriteReq mshr miss latency
system.cpu.dcache.WriteReq_avg_mshr_miss_latency::total 104286.083738                       # average WriteReq mshr miss latency
system.cpu.dcache.SoftPFReq_hits::.cpu.data           35                       # number of SoftPFReq hits
system.cpu.dcache.SoftPFReq_hits::total            35                       # number of SoftPFReq hits
system.cpu.dcache.SoftPFReq_misses::.cpu.data           18                       # number of SoftPFReq misses
system.cpu.dcache.SoftPFReq_misses::total           18                       # number of SoftPFReq misses
system.cpu.dcache.SoftPFReq_accesses::.cpu.data           53                       # number of SoftPFReq accesses(hits+misses)
system.cpu.dcache.SoftPFReq_accesses::total           53                       # number of SoftPFReq accesses(hits+misses)
system.cpu.dcache.SoftPFReq_miss_rate::.cpu.data     0.339623                       # miss rate for SoftPFReq accesses
system.cpu.dcache.SoftPFReq_miss_rate::total     0.339623                       # miss rate for SoftPFReq accesses
system.cpu.dcache.SoftPFReq_mshr_misses::.cpu.data           15                       # number of SoftPFReq MSHR misses
system.cpu.dcache.SoftPFReq_mshr_misses::total           15                       # number of SoftPFReq MSHR misses
system.cpu.dcache.SoftPFReq_mshr_miss_latency::.cpu.data      1407000                       # number of SoftPFReq MSHR miss cycles
system.cpu.dcache.SoftPFReq_mshr_miss_latency::total      1407000                       # number of SoftPFReq MSHR miss cycles
system.cpu.dcache.SoftPFReq_mshr_miss_rate::.cpu.data     0.283019                       # mshr miss rate for SoftPFReq accesses
system.cpu.dcache.SoftPFReq_mshr_miss_rate::total     0.283019                       # mshr miss rate for SoftPFReq accesses
system.cpu.dcache.SoftPFReq_avg_mshr_miss_latency::.cpu.data        93800                       # average SoftPFReq mshr miss latency
system.cpu.dcache.SoftPFReq_avg_mshr_miss_latency::total        93800                       # average SoftPFReq mshr miss latency
system.cpu.dcache.LoadLockedReq_hits::.cpu.data           14                       # number of LoadLockedReq hits
system.cpu.dcache.LoadLockedReq_hits::total           14                       # number of LoadLockedReq hits
system.cpu.dcache.LoadLockedReq_accesses::.cpu.data           14                       # number of LoadLockedReq accesses(hits+misses)
system.cpu.dcache.LoadLockedReq_accesses::total           14                       # number of LoadLockedReq accesses(hits+misses)
system.cpu.dcache.StoreCondReq_hits::.cpu.data           14                       # number of StoreCondReq hits
system.cpu.dcache.StoreCondReq_hits::total           14                       # number of StoreCondReq hits
system.cpu.dcache.StoreCondReq_accesses::.cpu.data           14                       # number of StoreCondReq accesses(hits+misses)
system.cpu.dcache.StoreCondReq_accesses::total           14                       # number of StoreCondReq accesses(hits+misses)
system.cpu.dcache.power_state.pwrStateResidencyTicks::UNDEFINED 265098310000                       # Cumulative time (in ticks) in various power states
system.cpu.dcache.tags.tagsinuse           511.801759                       # Cycle average of tags in use
system.cpu.dcache.tags.total_refs            47290896                       # Total number of references to valid blocks.
system.cpu.dcache.tags.sampled_refs           1528323                       # Sample count of references to valid blocks.
system.cpu.dcache.tags.avg_refs             30.942998                       # Average number of references to valid blocks.
system.cpu.dcache.tags.warmup_cycle            223000                       # Cycle when the warmup percentage was hit.
system.cpu.dcache.tags.occ_blocks::.cpu.data   511.801759                       # Average occupied blocks per requestor
system.cpu.dcache.tags.occ_percent::.cpu.data     0.999613                       # Average percentage of cache occupancy
system.cpu.dcache.tags.occ_percent::total     0.999613                       # Average percentage of cache occupancy
system.cpu.dcache.tags.occ_task_id_blocks::1024          512                       # Occupied blocks per task id
system.cpu.dcache.tags.age_task_id_blocks_1024::0           56                       # Occupied blocks per task id
system.cpu.dcache.tags.age_task_id_blocks_1024::1          456                       # Occupied blocks per task id
system.cpu.dcache.tags.occ_task_id_percent::1024            1                       # Percentage of cache occupancy per task id
system.cpu.dcache.tags.tag_accesses          50323558                       # Number of tag accesses
system.cpu.dcache.tags.data_accesses         50323558                       # Number of data accesses
system.cpu.dcache.tags.power_state.pwrStateResidencyTicks::UNDEFINED 265098310000                       # Cumulative time (in ticks) in various power states
system.cpu.dtb.instHits                             0                       # ITB inst hits
system.cpu.dtb.instMisses                           0                       # ITB inst misses
system.cpu.dtb.readHits                             0                       # DTB read hits
system.cpu.dtb.readMisses                           0                       # DTB read misses
system.cpu.dtb.writeHits                            0                       # DTB write hits
system.cpu.dtb.writeMisses                          0                       # DTB write misses
system.cpu.dtb.inserts                              0                       # Number of times an entry is inserted into the TLB
system.cpu.dtb.flushTlb                             0                       # Number of times complete TLB was flushed
system.cpu.dtb.flushTlbMva                          0                       # Number of times TLB was flushed by MVA
system.cpu.dtb.flushTlbMvaAsid                      0                       # Number of times TLB was flushed by MVA & ASID
system.cpu.dtb.flushTlbAsid                         0                       # Number of times TLB was flushed by ASID
system.cpu.dtb.flushedEntries                       0                       # Number of entries that have been flushed from TLB
system.cpu.dtb.alignFaults                          0                       # Number of TLB faults due to alignment restrictions
system.cpu.dtb.prefetchFaults                       0                       # Number of TLB faults due to prefetch
system.cpu.dtb.domainFaults                         0                       # Number of TLB faults due to domain restrictions
system.cpu.dtb.permsFaults                          0                       # Number of TLB faults due to permissions restrictions
system.cpu.dtb.readAccesses                         0                       # DTB read accesses
system.cpu.dtb.writeAccesses                        0                       # DTB write accesses
system.cpu.dtb.instAccesses                         0                       # ITB inst accesses
system.cpu.dtb.hits                                 0                       # Total TLB (inst and data) hits
system.cpu.dtb.misses                               0                       # Total TLB (inst and data) misses
system.cpu.dtb.accesses                             0                       # Total TLB (inst and data) accesses
system.cpu.dtb.stage2_mmu.stage2_tlb.instHits            0                       # ITB inst hits
system.cpu.dtb.stage2_mmu.stage2_tlb.instMisses            0                       # ITB inst misses
system.cpu.dtb.stage2_mmu.stage2_tlb.readHits            0                       # DTB read hits
system.cpu.dtb.stage2_mmu.stage2_tlb.readMisses            0                       # DTB read misses
system.cpu.dtb.stage2_mmu.stage2_tlb.writeHits            0                       # DTB write hits
system.cpu.dtb.stage2_mmu.stage2_tlb.writeMisses            0                       # DTB write misses
system.cpu.dtb.stage2_mmu.stage2_tlb.inserts            0                       # Number of times an entry is inserted into the TLB
system.cpu.dtb.stage2_mmu.stage2_tlb.flushTlb            0                       # Number of times complete TLB was flushed
system.cpu.dtb.stage2_mmu.stage2_tlb.flushTlbMva            0                       # Number of times TLB was flushed by MVA
system.cpu.dtb.stage2_mmu.stage2_tlb.flushTlbMvaAsid            0                       # Number of times TLB was flushed by MVA & ASID
system.cpu.dtb.stage2_mmu.stage2_tlb.flushTlbAsid            0                       # Number of times TLB was flushed by ASID
system.cpu.dtb.stage2_mmu.stage2_tlb.flushedEntries            0                       # Number of entries that have been flushed from TLB
system.cpu.dtb.stage2_mmu.stage2_tlb.alignFaults            0                       # Number of TLB faults due to alignment restrictions
system.cpu.dtb.stage2_mmu.stage2_tlb.prefetchFaults            0                       # Number of TLB faults due to prefetch
system.cpu.dtb.stage2_mmu.stage2_tlb.domainFaults            0                       # Number of TLB faults due to domain restrictions
system.cpu.dtb.stage2_mmu.stage2_tlb.permsFaults            0                       # Number of TLB faults due to permissions restrictions
system.cpu.dtb.stage2_mmu.stage2_tlb.readAccesses            0                       # DTB read accesses
system.cpu.dtb.stage2_mmu.stage2_tlb.writeAccesses            0                       # DTB write accesses
system.cpu.dtb.stage2_mmu.stage2_tlb.instAccesses            0                       # ITB inst accesses
system.cpu.dtb.stage2_mmu.stage2_tlb.hits            0                       # Total TLB (inst and data) hits
system.cpu.dtb.stage2_mmu.stage2_tlb.misses            0                       # Total TLB (inst and data) misses
system.cpu.dtb.stage2_mmu.stage2_tlb.accesses            0                       # Total TLB (inst and data) accesses
system.cpu.dtb.stage2_mmu.stage2_tlb.walker.walks            0                       # Table walker walks requested
system.cpu.dtb.stage2_mmu.stage2_tlb.walker.requestOrigin_Requested::Data            0                       # Table walker requests started/completed, data/inst
system.cpu.dtb.stage2_mmu.stage2_tlb.walker.requestOrigin_Requested::Inst            0                       # Table walker requests started/completed, data/inst
system.cpu.dtb.stage2_mmu.stage2_tlb.walker.requestOrigin_Requested::total            0                       # Table walker requests started/completed, data/inst
system.cpu.dtb.stage2_mmu.stage2_tlb.walker.requestOrigin_Completed::Data            0                       # Table walker requests started/completed, data/inst
system.cpu.dtb.stage2_mmu.stage2_tlb.walker.requestOrigin_Completed::Inst            0                       # Table walker requests started/completed, data/inst
system.cpu.dtb.stage2_mmu.stage2_tlb.walker.requestOrigin_Completed::total            0                       # Table walker requests started/completed, data/inst
system.cpu.dtb.stage2_mmu.stage2_tlb.walker.requestOrigin::total            0                       # Table walker requests started/completed, data/inst
system.cpu.dtb.stage2_mmu.stage2_tlb.walker.power_state.pwrStateResidencyTicks::UNDEFINED 265098310000                       # Cumulative time (in ticks) in various power states
system.cpu.dtb.walker.walks                         0                       # Table walker walks requested
system.cpu.dtb.walker.requestOrigin_Requested::Data            0                       # Table walker requests started/completed, data/inst
system.cpu.dtb.walker.requestOrigin_Requested::Inst            0                       # Table walker requests started/completed, data/inst
system.cpu.dtb.walker.requestOrigin_Requested::total            0                       # Table walker requests started/completed, data/inst
system.cpu.dtb.walker.requestOrigin_Completed::Data            0                       # Table walker requests started/completed, data/inst
system.cpu.dtb.walker.requestOrigin_Completed::Inst            0                       # Table walker requests started/completed, data/inst
system.cpu.dtb.walker.requestOrigin_Completed::total            0                       # Table walker requests started/completed, data/inst
system.cpu.dtb.walker.requestOrigin::total            0                       # Table walker requests started/completed, data/inst
system.cpu.dtb.walker.power_state.pwrStateResidencyTicks::UNDEFINED 265098310000                       # Cumulative time (in ticks) in various power states
system.cpu.fetch2.intInstructions            49669897                       # Number of integer instructions successfully decoded
system.cpu.fetch2.fpInstructions                    0                       # Number of floating point instructions successfully decoded
system.cpu.fetch2.vecInstructions                   0                       # Number of SIMD instructions successfully decoded
system.cpu.fetch2.loadInstructions           37092309                       # Number of memory load instructions successfully decoded
system.cpu.fetch2.storeInstructions          13161123                       # Number of memory store instructions successfully decoded
system.cpu.fetch2.amoInstructions                   0                       # Number of memory atomic instructions successfully decoded
system.cpu.icache.demand_hits::.cpu.inst      6045767                       # number of demand (read+write) hits
system.cpu.icache.demand_hits::total          6045767                       # number of demand (read+write) hits
system.cpu.icache.overall_hits::.cpu.inst      6045767                       # number of overall hits
system.cpu.icache.overall_hits::total         6045767                       # number of overall hits
system.cpu.icache.demand_misses::.cpu.inst          756                       # number of demand (read+write) misses
system.cpu.icache.demand_misses::total            756                       # number of demand (read+write) misses
system.cpu.icache.overall_misses::.cpu.inst          756                       # number of overall misses
system.cpu.icache.overall_misses::total           756                       # number of overall misses
system.cpu.icache.demand_miss_latency::.cpu.inst     57761000                       # number of demand (read+write) miss cycles
system.cpu.icache.demand_miss_latency::total     57761000                       # number of demand (read+write) miss cycles
system.cpu.icache.overall_miss_latency::.cpu.inst     57761000                       # number of overall miss cycles
system.cpu.icache.overall_miss_latency::total     57761000                       # number of overall miss cycles
system.cpu.icache.demand_accesses::.cpu.inst      6046523                       # number of demand (read+write) accesses
system.cpu.icache.demand_accesses::total      6046523                       # number of demand (read+write) accesses
system.cpu.icache.overall_accesses::.cpu.inst      6046523                       # number of overall (read+write) accesses
system.cpu.icache.overall_accesses::total      6046523                       # number of overall (read+write) accesses
system.cpu.icache.demand_miss_rate::.cpu.inst     0.000125                       # miss rate for demand accesses
system.cpu.icache.demand_miss_rate::total     0.000125                       # miss rate for demand accesses
system.cpu.icache.overall_miss_rate::.cpu.inst     0.000125                       # miss rate for overall accesses
system.cpu.icache.overall_miss_rate::total     0.000125                       # miss rate for overall accesses
system.cpu.icache.demand_avg_miss_latency::.cpu.inst 76403.439153                       # average overall miss latency
system.cpu.icache.demand_avg_miss_latency::total 76403.439153                       # average overall miss latency
system.cpu.icache.overall_avg_miss_latency::.cpu.inst 76403.439153                       # average overall miss latency
system.cpu.icache.overall_avg_miss_latency::total 76403.439153                       # average overall miss latency
system.cpu.icache.blocked_cycles::no_mshrs            0                       # number of cycles access was blocked
system.cpu.icache.blocked_cycles::no_targets            0                       # number of cycles access was blocked
system.cpu.icache.blocked::no_mshrs                 0                       # number of cycles access was blocked
system.cpu.icache.blocked::no_targets               0                       # number of cycles access was blocked
system.cpu.icache.avg_blocked_cycles::no_mshrs          nan                       # average number of cycles each access was blocked
system.cpu.icache.avg_blocked_cycles::no_targets          nan                       # average number of cycles each access was blocked
system.cpu.icache.writebacks::.writebacks          456                       # number of writebacks
system.cpu.icache.writebacks::total               456                       # number of writebacks
system.cpu.icache.demand_mshr_misses::.cpu.inst          756                       # number of demand (read+write) MSHR misses
system.cpu.icache.demand_mshr_misses::total          756                       # number of demand (read+write) MSHR misses
system.cpu.icache.overall_mshr_misses::.cpu.inst          756                       # number of overall MSHR misses
system.cpu.icache.overall_mshr_misses::total          756                       # number of overall MSHR misses
system.cpu.icache.demand_mshr_miss_latency::.cpu.inst     56249000                       # number of demand (read+write) MSHR miss cycles
system.cpu.icache.demand_mshr_miss_latency::total     56249000                       # number of demand (read+write) MSHR miss cycles
system.cpu.icache.overall_mshr_miss_latency::.cpu.inst     56249000                       # number of overall MSHR miss cycles
system.cpu.icache.overall_mshr_miss_latency::total     56249000                       # number of overall MSHR miss cycles
system.cpu.icache.demand_mshr_miss_rate::.cpu.inst     0.000125                       # mshr miss rate for demand accesses
system.cpu.icache.demand_mshr_miss_rate::total     0.000125                       # mshr miss rate for demand accesses
system.cpu.icache.overall_mshr_miss_rate::.cpu.inst     0.000125                       # mshr miss rate for overall accesses
system.cpu.icache.overall_mshr_miss_rate::total     0.000125                       # mshr miss rate for overall accesses
system.cpu.icache.demand_avg_mshr_miss_latency::.cpu.inst 74403.439153                       # average overall mshr miss latency
system.cpu.icache.demand_avg_mshr_miss_latency::total 74403.439153                       # average overall mshr miss latency
system.cpu.icache.overall_avg_mshr_miss_latency::.cpu.inst 74403.439153                       # average overall mshr miss latency
system.cpu.icache.overall_avg_mshr_miss_latency::total 74403.439153                       # average overall mshr miss latency
system.cpu.icache.replacements                    456                       # number of replacements
system.cpu.icache.ReadReq_hits::.cpu.inst      6045767                       # number of ReadReq hits
system.cpu.icache.ReadReq_hits::total         6045767                       # number of ReadReq hits
system.cpu.icache.ReadReq_misses::.cpu.inst          756                       # number of ReadReq misses
system.cpu.icache.ReadReq_misses::total           756                       # number of ReadReq misses
system.cpu.icache.ReadReq_miss_latency::.cpu.inst     57761000                       # number of ReadReq miss cycles
system.cpu.icache.ReadReq_miss_latency::total     57761000                       # number of ReadReq miss cycles
system.cpu.icache.ReadReq_accesses::.cpu.inst      6046523                       # number of ReadReq accesses(hits+misses)
system.cpu.icache.ReadReq_accesses::total      6046523                       # number of ReadReq accesses(hits+misses)
system.cpu.icache.ReadReq_miss_rate::.cpu.inst     0.000125                       # miss rate for ReadReq accesses
system.cpu.icache.ReadReq_miss_rate::total     0.000125                       # miss rate for ReadReq accesses
system.cpu.icache.ReadReq_avg_miss_latency::.cpu.inst 76403.439153                       # average ReadReq miss latency
system.cpu.icache.ReadReq_avg_miss_latency::total 76403.439153                       # average ReadReq miss latency
system.cpu.icache.ReadReq_mshr_misses::.cpu.inst          756                       # number of ReadReq MSHR misses
system.cpu.icache.ReadReq_mshr_misses::total          756                       # number of ReadReq MSHR misses
system.cpu.icache.ReadReq_mshr_miss_latency::.cpu.inst     56249000                       # number of ReadReq MSHR miss cycles
system.cpu.icache.ReadReq_mshr_miss_latency::total     56249000                       # number of ReadReq MSHR miss cycles
system.cpu.icache.ReadReq_mshr_miss_rate::.cpu.inst     0.000125                       # mshr miss rate for ReadReq accesses
system.cpu.icache.ReadReq_mshr_miss_rate::total     0.000125                       # mshr miss rate for ReadReq accesses
system.cpu.icache.ReadReq_avg_mshr_miss_latency::.cpu.inst 74403.439153                       # average ReadReq mshr miss latency
system.cpu.icache.ReadReq_avg_mshr_miss_latency::total 74403.439153                       # average ReadReq mshr miss latency
system.cpu.icache.power_state.pwrStateResidencyTicks::UNDEFINED 265098310000                       # Cumulative time (in ticks) in various power states
system.cpu.icache.tags.tagsinuse           299.963798                       # Cycle average of tags in use
system.cpu.icache.tags.total_refs             6046523                       # Total number of references to valid blocks.
system.cpu.icache.tags.sampled_refs               756                       # Sample count of references to valid blocks.
system.cpu.icache.tags.avg_refs           7998.046296                       # Average number of references to valid blocks.
system.cpu.icache.tags.warmup_cycle            108000                       # Cycle when the warmup percentage was hit.
system.cpu.icache.tags.occ_blocks::.cpu.inst   299.963798                       # Average occupied blocks per requestor
system.cpu.icache.tags.occ_percent::.cpu.inst     0.585867                       # Average percentage of cache occupancy
system.cpu.icache.tags.occ_percent::total     0.585867                       # Average percentage of cache occupancy
system.cpu.icache.tags.occ_task_id_blocks::1024          300                       # Occupied blocks per task id
system.cpu.icache.tags.age_task_id_blocks_1024::4          300                       # Occupied blocks per task id
system.cpu.icache.tags.occ_task_id_percent::1024     0.585938                       # Percentage of cache occupancy per task id
system.cpu.icache.tags.tag_accesses           6047279                       # Number of tag accesses
system.cpu.icache.tags.data_accesses          6047279                       # Number of data accesses
system.cpu.icache.tags.power_state.pwrStateResidencyTicks::UNDEFINED 265098310000                       # Cumulative time (in ticks) in various power states
system.cpu.itb.instHits                             0                       # ITB inst hits
system.cpu.itb.instMisses                           0                       # ITB inst misses
system.cpu.itb.readHits                             0                       # DTB read hits
system.cpu.itb.readMisses                           0                       # DTB read misses
system.cpu.itb.writeHits                            0                       # DTB write hits
system.cpu.itb.writeMisses                          0                       # DTB write misses
system.cpu.itb.inserts                              0                       # Number of times an entry is inserted into the TLB
system.cpu.itb.flushTlb                             0                       # Number of times complete TLB was flushed
system.cpu.itb.flushTlbMva                          0                       # Number of times TLB was flushed by MVA
system.cpu.itb.flushTlbMvaAsid                      0                       # Number of times TLB was flushed by MVA & ASID
system.cpu.itb.flushTlbAsid                         0                       # Number of times TLB was flushed by ASID
system.cpu.itb.flushedEntries                       0                       # Number of entries that have been flushed from TLB
system.cpu.itb.alignFaults                          0                       # Number of TLB faults due to alignment restrictions
system.cpu.itb.prefetchFaults                       0                       # Number of TLB faults due to prefetch
system.cpu.itb.domainFaults                         0                       # Number of TLB faults due to domain restrictions
system.cpu.itb.permsFaults                          0                       # Number of TLB faults due to permissions restrictions
system.cpu.itb.readAccesses                         0                       # DTB read accesses
system.cpu.itb.writeAccesses                        0                       # DTB write accesses
system.cpu.itb.instAccesses                         0                       # ITB inst accesses
system.cpu.itb.hits                                 0                       # Total TLB (inst and data) hits
system.cpu.itb.misses                               0                       # Total TLB (inst and data) misses
system.cpu.itb.accesses                             0                       # Total TLB (inst and data) accesses
system.cpu.itb.stage2_mmu.stage2_tlb.instHits            0                       # ITB inst hits
system.cpu.itb.stage2_mmu.stage2_tlb.instMisses            0                       # ITB inst misses
system.cpu.itb.stage2_mmu.stage2_tlb.readHits            0                       # DTB read hits
system.cpu.itb.stage2_mmu.stage2_tlb.readMisses            0                       # DTB read misses
system.cpu.itb.stage2_mmu.stage2_tlb.writeHits            0                       # DTB write hits
system.cpu.itb.stage2_mmu.stage2_tlb.writeMisses            0                       # DTB write misses
system.cpu.itb.stage2_mmu.stage2_tlb.inserts            0                       # Number of times an entry is inserted into the TLB
system.cpu.itb.stage2_mmu.stage2_tlb.flushTlb            0                       # Number of times complete TLB was flushed
system.cpu.itb.stage2_mmu.stage2_tlb.flushTlbMva            0                       # Number of times TLB was flushed by MVA
system.cpu.itb.stage2_mmu.stage2_tlb.flushTlbMvaAsid            0                       # Number of times TLB was flushed by MVA & ASID
system.cpu.itb.stage2_mmu.stage2_tlb.flushTlbAsid            0                       # Number of times TLB was flushed by ASID
system.cpu.itb.stage2_mmu.stage2_tlb.flushedEntries            0                       # Number of entries that have been flushed from TLB
system.cpu.itb.stage2_mmu.stage2_tlb.alignFaults            0                       # Number of TLB faults due to alignment restrictions
system.cpu.itb.stage2_mmu.stage2_tlb.prefetchFaults            0                       # Number of TLB faults due to prefetch
system.cpu.itb.stage2_mmu.stage2_tlb.domainFaults            0                       # Number of TLB faults due to domain restrictions
system.cpu.itb.stage2_mmu.stage2_tlb.permsFaults            0                       # Number of TLB faults due to permissions restrictions
system.cpu.itb.stage2_mmu.stage2_tlb.readAccesses            0                       # DTB read accesses
system.cpu.itb.stage2_mmu.stage2_tlb.writeAccesses            0                       # DTB write accesses
system.cpu.itb.stage2_mmu.stage2_tlb.instAccesses            0                       # ITB inst accesses
system.cpu.itb.stage2_mmu.stage2_tlb.hits            0                       # Total TLB (inst and data) hits
system.cpu.itb.stage2_mmu.stage2_tlb.misses            0                       # Total TLB (inst and data) misses
system.cpu.itb.stage2_mmu.stage2_tlb.accesses            0                       # Total TLB (inst and data) accesses
system.cpu.itb.stage2_mmu.stage2_tlb.walker.walks            0                       # Table walker walks requested
system.cpu.itb.stage2_mmu.stage2_tlb.walker.requestOrigin_Requested::Data            0                       # Table walker requests started/completed, data/inst
system.cpu.itb.stage2_mmu.stage2_tlb.walker.requestOrigin_Requested::Inst            0                       # Table walker requests started/completed, data/inst
system.cpu.itb.stage2_mmu.stage2_tlb.walker.requestOrigin_Requested::total            0                       # Table walker requests started/completed, data/inst
system.cpu.itb.stage2_mmu.stage2_tlb.walker.requestOrigin_Completed::Data            0                       # Table walker requests started/completed, data/inst
system.cpu.itb.stage2_mmu.stage2_tlb.walker.requestOrigin_Completed::Inst            0                       # Table walker requests started/completed, data/inst
system.cpu.itb.stage2_mmu.stage2_tlb.walker.requestOrigin_Completed::total            0                       # Table walker requests started/completed, data/inst
system.cpu.itb.stage2_mmu.stage2_tlb.walker.requestOrigin::total            0                       # Table walker requests started/completed, data/inst
system.cpu.itb.stage2_mmu.stage2_tlb.walker.power_state.pwrStateResidencyTicks::UNDEFINED 265098310000                       # Cumulative time (in ticks) in various power states
system.cpu.itb.walker.walks                         0                       # Table walker walks requested
system.cpu.itb.walker.requestOrigin_Requested::Data            0                       # Table walker requests started/completed, data/inst
system.cpu.itb.walker.requestOrigin_Requested::Inst            0                       # Table walker requests started/completed, data/inst
system.cpu.itb.walker.requestOrigin_Requested::total            0                       # Table walker requests started/completed, data/inst
system.cpu.itb.walker.requestOrigin_Completed::Data            0                       # Table walker requests started/completed, data/inst
system.cpu.itb.walker.requestOrigin_Completed::Inst            0                       # Table walker requests started/completed, data/inst
system.cpu.itb.walker.requestOrigin_Completed::total            0                       # Table walker requests started/completed, data/inst
system.cpu.itb.walker.requestOrigin::total            0                       # Table walker requests started/completed, data/inst
system.cpu.itb.walker.power_state.pwrStateResidencyTicks::UNDEFINED 265098310000                       # Cumulative time (in ticks) in various power states
system.cpu.power_state.pwrStateResidencyTicks::ON 265098310000                       # Cumulative time (in ticks) in various power states
system.cpu.thread_0.numInsts                100000000                       # Number of Instructions committed
system.cpu.thread_0.numOps                  100003676                       # Number of Ops committed
system.cpu.thread_0.numMemRefs                      0                       # Number of Memory References
system.cpu_clk_domain.clock                      1000                       # Clock period in ticks
system.cpu_voltage_domain.voltage                   1                       # Voltage in Volts
system.l2.demand_hits::.cpu.inst                  256                       # number of demand (read+write) hits
system.l2.demand_hits::.cpu.data                40706                       # number of demand (read+write) hits
system.l2.demand_hits::total                    40962                       # number of demand (read+write) hits
system.l2.overall_hits::.cpu.inst                 256                       # number of overall hits
system.l2.overall_hits::.cpu.data               40706                       # number of overall hits
system.l2.overall_hits::total                   40962                       # number of overall hits
system.l2.demand_misses::.cpu.inst                500                       # number of demand (read+write) misses
system.l2.demand_misses::.cpu.data            1487617                       # number of demand (read+write) misses
system.l2.demand_misses::total                1488117                       # number of demand (read+write) misses
system.l2.overall_misses::.cpu.inst               500                       # number of overall misses
system.l2.overall_misses::.cpu.data           1487617                       # number of overall misses
system.l2.overall_misses::total               1488117                       # number of overall misses
system.l2.demand_miss_latency::.cpu.inst     48410000                       # number of demand (read+write) miss cycles
system.l2.demand_miss_latency::.cpu.data 151498842000                       # number of demand (read+write) miss cycles
system.l2.demand_miss_latency::total     151547252000                       # number of demand (read+write) miss cycles
system.l2.overall_miss_latency::.cpu.inst     48410000                       # number of overall miss cycles
system.l2.overall_miss_latency::.cpu.data 151498842000                       # number of overall miss cycles
system.l2.overall_miss_latency::total    151547252000                       # number of overall miss cycles
system.l2.demand_accesses::.cpu.inst              756                       # number of demand (read+write) accesses
system.l2.demand_accesses::.cpu.data          1528323                       # number of demand (read+write) accesses
system.l2.demand_accesses::total              1529079                       # number of demand (read+write) accesses
system.l2.overall_accesses::.cpu.inst             756                       # number of overall (read+write) accesses
system.l2.overall_accesses::.cpu.data         1528323                       # number of overall (read+write) accesses
system.l2.overall_accesses::total             1529079                       # number of overall (read+write) accesses
system.l2.demand_miss_rate::.cpu.inst        0.661376                       # miss rate for demand accesses
system.l2.demand_miss_rate::.cpu.data        0.973366                       # miss rate for demand accesses
system.l2.demand_miss_rate::total            0.973211                       # miss rate for demand accesses
system.l2.overall_miss_rate::.cpu.inst       0.661376                       # miss rate for overall accesses
system.l2.overall_miss_rate::.cpu.data       0.973366                       # miss rate for overall accesses
system.l2.overall_miss_rate::total           0.973211                       # miss rate for overall accesses
system.l2.demand_avg_miss_latency::.cpu.inst        96820                       # average overall miss latency
system.l2.demand_avg_miss_latency::.cpu.data 101839.950740                       # average overall miss latency
system.l2.demand_avg_miss_latency::total 101838.264061                       # average overall miss latency
system.l2.overall_avg_miss_latency::.cpu.inst        96820                       # average overall miss latency
system.l2.overall_avg_miss_latency::.cpu.data 101839.950740                       # average overall miss latency
system.l2.overall_avg_miss_latency::total 101838.264061                       # average overall miss latency
system.l2.blocked_cycles::no_mshrs                  0                       # number of cycles access was blocked
system.l2.blocked_cycles::no_targets                0                       # number of cycles access was blocked
system.l2.blocked::no_mshrs                         0                       # number of cycles access was blocked
system.l2.blocked::no_targets                       0                       # number of cycles access was blocked
system.l2.avg_blocked_cycles::no_mshrs            nan                       # average number of cycles each access was blocked
system.l2.avg_blocked_cycles::no_targets          nan                       # average number of cycles each access was blocked
system.l2.writebacks::.writebacks             1483422                       # number of writebacks
system.l2.writebacks::total                   1483422                       # number of writebacks
system.l2.demand_mshr_hits::.cpu.inst               2                       # number of demand (read+write) MSHR hits
system.l2.demand_mshr_hits::.cpu.data               3                       # number of demand (read+write) MSHR hits
system.l2.demand_mshr_hits::total                   5                       # number of demand (read+write) MSHR hits
system.l2.overall_mshr_hits::.cpu.inst              2                       # number of overall MSHR hits
system.l2.overall_mshr_hits::.cpu.data              3                       # number of overall MSHR hits
system.l2.overall_mshr_hits::total                  5                       # number of overall MSHR hits
system.l2.demand_mshr_misses::.cpu.inst           498                       # number of demand (read+write) MSHR misses
system.l2.demand_mshr_misses::.cpu.data       1487614                       # number of demand (read+write) MSHR misses
system.l2.demand_mshr_misses::total           1488112                       # number of demand (read+write) MSHR misses
system.l2.overall_mshr_misses::.cpu.inst          498                       # number of overall MSHR misses
system.l2.overall_mshr_misses::.cpu.data      1487614                       # number of overall MSHR misses
system.l2.overall_mshr_misses::total          1488112                       # number of overall MSHR misses
system.l2.demand_mshr_miss_latency::.cpu.inst     38276000                       # number of demand (read+write) MSHR miss cycles
system.l2.demand_mshr_miss_latency::.cpu.data 121746306000                       # number of demand (read+write) MSHR miss cycles
system.l2.demand_mshr_miss_latency::total 121784582000                       # number of demand (read+write) MSHR miss cycles
system.l2.overall_mshr_miss_latency::.cpu.inst     38276000                       # number of overall MSHR miss cycles
system.l2.overall_mshr_miss_latency::.cpu.data 121746306000                       # number of overall MSHR miss cycles
system.l2.overall_mshr_miss_latency::total 121784582000                       # number of overall MSHR miss cycles
system.l2.demand_mshr_miss_rate::.cpu.inst     0.658730                       # mshr miss rate for demand accesses
system.l2.demand_mshr_miss_rate::.cpu.data     0.973364                       # mshr miss rate for demand accesses
system.l2.demand_mshr_miss_rate::total       0.973208                       # mshr miss rate for demand accesses
system.l2.overall_mshr_miss_rate::.cpu.inst     0.658730                       # mshr miss rate for overall accesses
system.l2.overall_mshr_miss_rate::.cpu.data     0.973364                       # mshr miss rate for overall accesses
system.l2.overall_mshr_miss_rate::total      0.973208                       # mshr miss rate for overall accesses
system.l2.demand_avg_mshr_miss_latency::.cpu.inst 76859.437751                       # average overall mshr miss latency
system.l2.demand_avg_mshr_miss_latency::.cpu.data 81839.984028                       # average overall mshr miss latency
system.l2.demand_avg_mshr_miss_latency::total 81838.317277                       # average overall mshr miss latency
system.l2.overall_avg_mshr_miss_latency::.cpu.inst 76859.437751                       # average overall mshr miss latency
system.l2.overall_avg_mshr_miss_latency::.cpu.data 81839.984028                       # average overall mshr miss latency
system.l2.overall_avg_mshr_miss_latency::total 81838.317277                       # average overall mshr miss latency
system.l2.replacements                        1484016                       # number of replacements
system.l2.WritebackDirty_hits::.writebacks      1516069                       # number of WritebackDirty hits
system.l2.WritebackDirty_hits::total          1516069                       # number of WritebackDirty hits
system.l2.WritebackDirty_accesses::.writebacks      1516069                       # number of WritebackDirty accesses(hits+misses)
system.l2.WritebackDirty_accesses::total      1516069                       # number of WritebackDirty accesses(hits+misses)
system.l2.WritebackClean_hits::.writebacks          437                       # number of WritebackClean hits
system.l2.WritebackClean_hits::total              437                       # number of WritebackClean hits
system.l2.WritebackClean_accesses::.writebacks          437                       # number of WritebackClean accesses(hits+misses)
system.l2.WritebackClean_accesses::total          437                       # number of WritebackClean accesses(hits+misses)
system.l2.ReadExReq_hits::.cpu.data             17430                       # number of ReadExReq hits
system.l2.ReadExReq_hits::total                 17430                       # number of ReadExReq hits
system.l2.ReadExReq_misses::.cpu.data         1487500                       # number of ReadExReq misses
system.l2.ReadExReq_misses::total             1487500                       # number of ReadExReq misses
system.l2.ReadExReq_miss_latency::.cpu.data 151487245000                       # number of ReadExReq miss cycles
system.l2.ReadExReq_miss_latency::total  151487245000                       # number of ReadExReq miss cycles
system.l2.ReadExReq_accesses::.cpu.data       1504930                       # number of ReadExReq accesses(hits+misses)
system.l2.ReadExReq_accesses::total           1504930                       # number of ReadExReq accesses(hits+misses)
system.l2.ReadExReq_miss_rate::.cpu.data     0.988418                       # miss rate for ReadExReq accesses
system.l2.ReadExReq_miss_rate::total         0.988418                       # miss rate for ReadExReq accesses
system.l2.ReadExReq_avg_miss_latency::.cpu.data 101840.164706                       # average ReadExReq miss latency
system.l2.ReadExReq_avg_miss_latency::total 101840.164706                       # average ReadExReq miss latency
system.l2.ReadExReq_mshr_misses::.cpu.data      1487500                       # number of ReadExReq MSHR misses
system.l2.ReadExReq_mshr_misses::total        1487500                       # number of ReadExReq MSHR misses
system.l2.ReadExReq_mshr_miss_latency::.cpu.data 121737245000                       # number of ReadExReq MSHR miss cycles
system.l2.ReadExReq_mshr_miss_latency::total 121737245000                       # number of ReadExReq MSHR miss cycles
system.l2.ReadExReq_mshr_miss_rate::.cpu.data     0.988418                       # mshr miss rate for ReadExReq accesses
system.l2.ReadExReq_mshr_miss_rate::total     0.988418                       # mshr miss rate for ReadExReq accesses
system.l2.ReadExReq_avg_mshr_miss_latency::.cpu.data 81840.164706                       # average ReadExReq mshr miss latency
system.l2.ReadExReq_avg_mshr_miss_latency::total 81840.164706                       # average ReadExReq mshr miss latency
system.l2.ReadCleanReq_hits::.cpu.inst            256                       # number of ReadCleanReq hits
system.l2.ReadCleanReq_hits::total                256                       # number of ReadCleanReq hits
system.l2.ReadCleanReq_misses::.cpu.inst          500                       # number of ReadCleanReq misses
system.l2.ReadCleanReq_misses::total              500                       # number of ReadCleanReq misses
system.l2.ReadCleanReq_miss_latency::.cpu.inst     48410000                       # number of ReadCleanReq miss cycles
system.l2.ReadCleanReq_miss_latency::total     48410000                       # number of ReadCleanReq miss cycles
system.l2.ReadCleanReq_accesses::.cpu.inst          756                       # number of ReadCleanReq accesses(hits+misses)
system.l2.ReadCleanReq_accesses::total            756                       # number of ReadCleanReq accesses(hits+misses)
system.l2.ReadCleanReq_miss_rate::.cpu.inst     0.661376                       # miss rate for ReadCleanReq accesses
system.l2.ReadCleanReq_miss_rate::total      0.661376                       # miss rate for ReadCleanReq accesses
system.l2.ReadCleanReq_avg_miss_latency::.cpu.inst        96820                       # average ReadCleanReq miss latency
system.l2.ReadCleanReq_avg_miss_latency::total        96820                       # average ReadCleanReq miss latency
system.l2.ReadCleanReq_mshr_hits::.cpu.inst            2                       # number of ReadCleanReq MSHR hits
system.l2.ReadCleanReq_mshr_hits::total             2                       # number of ReadCleanReq MSHR hits
system.l2.ReadCleanReq_mshr_misses::.cpu.inst          498                       # number of ReadCleanReq MSHR misses
system.l2.ReadCleanReq_mshr_misses::total          498                       # number of ReadCleanReq MSHR misses
system.l2.ReadCleanReq_mshr_miss_latency::.cpu.inst     38276000                       # number of ReadCleanReq MSHR miss cycles
system.l2.ReadCleanReq_mshr_miss_latency::total     38276000                       # number of ReadCleanReq MSHR miss cycles
system.l2.ReadCleanReq_mshr_miss_rate::.cpu.inst     0.658730                       # mshr miss rate for ReadCleanReq accesses
system.l2.ReadCleanReq_mshr_miss_rate::total     0.658730                       # mshr miss rate for ReadCleanReq accesses
system.l2.ReadCleanReq_avg_mshr_miss_latency::.cpu.inst 76859.437751                       # average ReadCleanReq mshr miss latency
system.l2.ReadCleanReq_avg_mshr_miss_latency::total 76859.437751                       # average ReadCleanReq mshr miss latency
system.l2.ReadSharedReq_hits::.cpu.data         23276                       # number of ReadSharedReq hits
system.l2.ReadSharedReq_hits::total             23276                       # number of ReadSharedReq hits
system.l2.ReadSharedReq_misses::.cpu.data          117                       # number of ReadSharedReq misses
system.l2.ReadSharedReq_misses::total             117                       # number of ReadSharedReq misses
system.l2.ReadSharedReq_miss_latency::.cpu.data     11597000                       # number of ReadSharedReq miss cycles
system.l2.ReadSharedReq_miss_latency::total     11597000                       # number of ReadSharedReq miss cycles
system.l2.ReadSharedReq_accesses::.cpu.data        23393                       # number of ReadSharedReq accesses(hits+misses)
system.l2.ReadSharedReq_accesses::total         23393                       # number of ReadSharedReq accesses(hits+misses)
system.l2.ReadSharedReq_miss_rate::.cpu.data     0.005001                       # miss rate for ReadSharedReq accesses
system.l2.ReadSharedReq_miss_rate::total     0.005001                       # miss rate for ReadSharedReq accesses
system.l2.ReadSharedReq_avg_miss_latency::.cpu.data 99119.658120                       # average ReadSharedReq miss latency
system.l2.ReadSharedReq_avg_miss_latency::total 99119.658120                       # average ReadSharedReq miss latency
system.l2.ReadSharedReq_mshr_hits::.cpu.data            3                       # number of ReadSharedReq MSHR hits
system.l2.ReadSharedReq_mshr_hits::total            3                       # number of ReadSharedReq MSHR hits
system.l2.ReadSharedReq_mshr_misses::.cpu.data          114                       # number of ReadSharedReq MSHR misses
system.l2.ReadSharedReq_mshr_misses::total          114                       # number of ReadSharedReq MSHR misses
system.l2.ReadSharedReq_mshr_miss_latency::.cpu.data      9061000                       # number of ReadSharedReq MSHR miss cycles
system.l2.ReadSharedReq_mshr_miss_latency::total      9061000                       # number of ReadSharedReq MSHR miss cycles
system.l2.ReadSharedReq_mshr_miss_rate::.cpu.data     0.004873                       # mshr miss rate for ReadSharedReq accesses
system.l2.ReadSharedReq_mshr_miss_rate::total     0.004873                       # mshr miss rate for ReadSharedReq accesses
system.l2.ReadSharedReq_avg_mshr_miss_latency::.cpu.data 79482.456140                       # average ReadSharedReq mshr miss latency
system.l2.ReadSharedReq_avg_mshr_miss_latency::total 79482.456140                       # average ReadSharedReq mshr miss latency
system.l2.power_state.pwrStateResidencyTicks::UNDEFINED 265098310000                       # Cumulative time (in ticks) in various power states
system.l2.tags.tagsinuse                  4090.649455                       # Cycle average of tags in use
system.l2.tags.total_refs                     3045684                       # Total number of references to valid blocks.
system.l2.tags.sampled_refs                   1488112                       # Sample count of references to valid blocks.
system.l2.tags.avg_refs                      2.046677                       # Average number of references to valid blocks.
system.l2.tags.warmup_cycle                     87000                       # Cycle when the warmup percentage was hit.
system.l2.tags.occ_blocks::.cpu.inst         2.049631                       # Average occupied blocks per requestor
system.l2.tags.occ_blocks::.cpu.data      4088.599824                       # Average occupied blocks per requestor
system.l2.tags.occ_percent::.cpu.inst        0.000500                       # Average percentage of cache occupancy
system.l2.tags.occ_percent::.cpu.data        0.998193                       # Average percentage of cache occupancy
system.l2.tags.occ_percent::total            0.998694                       # Average percentage of cache occupancy
system.l2.tags.occ_task_id_blocks::1024          4096                       # Occupied blocks per task id
system.l2.tags.age_task_id_blocks_1024::0           56                       # Occupied blocks per task id
system.l2.tags.age_task_id_blocks_1024::1          505                       # Occupied blocks per task id
system.l2.tags.age_task_id_blocks_1024::2         3533                       # Occupied blocks per task id
system.l2.tags.age_task_id_blocks_1024::4            2                       # Occupied blocks per task id
system.l2.tags.occ_task_id_percent::1024            1                       # Percentage of cache occupancy per task id
system.l2.tags.tag_accesses                   7579490                       # Number of tag accesses
system.l2.tags.data_accesses                  7579490                       # Number of data accesses
system.l2.tags.power_state.pwrStateResidencyTicks::UNDEFINED 265098310000                       # Cumulative time (in ticks) in various power states
system.mem_ctrls.avgPriority_.writebacks::samples   1483422.00                       # Average QoS priority value for accepted requests
system.mem_ctrls.avgPriority_.cpu.inst::samples       498.00                       # Average QoS priority value for accepted requests
system.mem_ctrls.avgPriority_.cpu.data::samples   1487614.00                       # Average QoS priority value for accepted requests
system.mem_ctrls.priorityMinLatency      0.000000018750                       # per QoS priority minimum request to response latency (s)
system.mem_ctrls.priorityMaxLatency      0.000118682500                       # per QoS priority maximum request to response latency (s)
system.mem_ctrls.numReadWriteTurnArounds        82560                       # Number of turnarounds from READ to WRITE
system.mem_ctrls.numWriteReadTurnArounds        82560                       # Number of turnarounds from WRITE to READ
system.mem_ctrls.numStayReadState             4461775                       # Number of times bus staying in READ state
system.mem_ctrls.numStayWriteState            1406138                       # Number of times bus staying in WRITE state
system.mem_ctrls.readReqs                     1488112                       # Number of read requests accepted
system.mem_ctrls.writeReqs                    1483422                       # Number of write requests accepted
system.mem_ctrls.readBursts                   1488112                       # Number of controller read bursts, including those serviced by the write queue
system.mem_ctrls.writeBursts                  1483422                       # Number of controller write bursts, including those merged in the write queue
system.mem_ctrls.servicedByWrQ                      0                       # Number of controller read bursts serviced by the write queue
system.mem_ctrls.mergedWrBursts                     0                       # Number of controller write bursts merged with an existing one
system.mem_ctrls.neitherReadNorWriteReqs            0                       # Number of requests that are neither read nor write
system.mem_ctrls.avgRdQLen                       1.00                       # Average read queue length when enqueuing
system.mem_ctrls.avgWrQLen                      24.78                       # Average write queue length when enqueuing
system.mem_ctrls.numRdRetry                         0                       # Number of times read queue was full causing retry
system.mem_ctrls.numWrRetry                         0                       # Number of times write queue was full causing retry
system.mem_ctrls.readPktSize::0                     0                       # Read request sizes (log2)
system.mem_ctrls.readPktSize::1                     0                       # Read request sizes (log2)
system.mem_ctrls.readPktSize::2                     0                       # Read request sizes (log2)
system.mem_ctrls.readPktSize::3                     0                       # Read request sizes (log2)
system.mem_ctrls.readPktSize::4                     0                       # Read request sizes (log2)
system.mem_ctrls.readPktSize::5                     0                       # Read request sizes (log2)
system.mem_ctrls.readPktSize::6               1488112                       # Read request sizes (log2)
system.mem_ctrls.writePktSize::0                    0                       # Write request sizes (log2)
system.mem_ctrls.writePktSize::1                    0                       # Write request sizes (log2)
system.mem_ctrls.writePktSize::2                    0                       # Write request sizes (log2)
system.mem_ctrls.writePktSize::3                    0                       # Write request sizes (log2)
system.mem_ctrls.writePktSize::4                    0                       # Write request sizes (log2)
system.mem_ctrls.writePktSize::5                    0                       # Write request sizes (log2)
system.mem_ctrls.writePktSize::6              1483422                       # Write request sizes (log2)
system.mem_ctrls.rdQLenPdf::0                 1488031                       # What read queue length does an incoming req see
system.mem_ctrls.rdQLenPdf::1                      75                       # What read queue length does an incoming req see
system.mem_ctrls.rdQLenPdf::2                       6                       # What read queue length does an incoming req see
system.mem_ctrls.rdQLenPdf::3                       0                       # What read queue length does an incoming req see
system.mem_ctrls.rdQLenPdf::4                       0                       # What read queue length does an incoming req see
system.mem_ctrls.rdQLenPdf::5                       0                       # What read queue length does an incoming req see
system.mem_ctrls.rdQLenPdf::6                       0                       # What read queue length does an incoming req see
system.mem_ctrls.rdQLenPdf::7                       0                       # What read queue length does an incoming req see
system.mem_ctrls.rdQLenPdf::8                       0                       # What read queue length does an incoming req see
system.mem_ctrls.rdQLenPdf::9                       0                       # What read queue length does an incoming req see
system.mem_ctrls.rdQLenPdf::10                      0                       # What read queue length does an incoming req see
system.mem_ctrls.rdQLenPdf::11                      0                       # What read queue length does an incoming req see
system.mem_ctrls.rdQLenPdf::12                      0                       # What read queue length does an incoming req see
[...]
system.mem_ctrls.dram.bw_write::.writebacks    358127549                       # Write bandwidth from this memory (bytes/s)
system.mem_ctrls.dram.bw_write::total       358127549                       # Write bandwidth from this memory (bytes/s)
system.mem_ctrls.dram.bw_total::.writebacks    358127549                       # Total bandwidth to/from this memory (bytes/s)
system.mem_ctrls.dram.bw_total::.cpu.inst       120227                       # Total bandwidth to/from this memory (bytes/s)
system.mem_ctrls.dram.bw_total::.cpu.data    359139581                       # Total bandwidth to/from this memory (bytes/s)
system.mem_ctrls.dram.bw_total::total       717387357                       # Total bandwidth to/from this memory (bytes/s)
system.mem_ctrls.dram.readBursts              1488112                       # Number of DRAM read bursts
system.mem_ctrls.dram.writeBursts             1483397                       # Number of DRAM write bursts
system.mem_ctrls.dram.perBankRdBursts::0        93031                       # Per bank write bursts
system.mem_ctrls.dram.perBankRdBursts::1        92977                       # Per bank write bursts
system.mem_ctrls.dram.perBankRdBursts::2        93002                       # Per bank write bursts
system.mem_ctrls.dram.perBankRdBursts::3        92952                       # Per bank write bursts
system.mem_ctrls.dram.perBankRdBursts::4        92983                       # Per bank write bursts
system.mem_ctrls.dram.perBankRdBursts::5        93010                       # Per bank write bursts
system.mem_ctrls.dram.perBankRdBursts::6        93062                       # Per bank write bursts
system.mem_ctrls.dram.perBankRdBursts::7        93077                       # Per bank write bursts
system.mem_ctrls.dram.perBankRdBursts::8        93154                       # Per bank write bursts
system.mem_ctrls.dram.perBankRdBursts::9        93077                       # Per bank write bursts
system.mem_ctrls.dram.perBankRdBursts::10        92956                       # Per bank write bursts
system.mem_ctrls.dram.perBankRdBursts::11        92950                       # Per bank write bursts
system.mem_ctrls.dram.perBankRdBursts::12        92997                       # Per bank write bursts
system.mem_ctrls.dram.perBankRdBursts::13        92953                       # Per bank write bursts
system.mem_ctrls.dram.perBankRdBursts::14        92960                       # Per bank write bursts
system.mem_ctrls.dram.perBankRdBursts::15        92971                       # Per bank write bursts
system.mem_ctrls.dram.perBankWrBursts::0        92676                       # Per bank write bursts
system.mem_ctrls.dram.perBankWrBursts::1        92712                       # Per bank write bursts
system.mem_ctrls.dram.perBankWrBursts::2        92698                       # Per bank write bursts
system.mem_ctrls.dram.perBankWrBursts::3        92687                       # Per bank write bursts
system.mem_ctrls.dram.perBankWrBursts::4        92679                       # Per bank write bursts
system.mem_ctrls.dram.perBankWrBursts::5        92737                       # Per bank write bursts
system.mem_ctrls.dram.perBankWrBursts::6        92800                       # Per bank write bursts
system.mem_ctrls.dram.perBankWrBursts::7        92800                       # Per bank write bursts
system.mem_ctrls.dram.perBankWrBursts::8        92800                       # Per bank write bursts
system.mem_ctrls.dram.perBankWrBursts::9        92776                       # Per bank write bursts
system.mem_ctrls.dram.perBankWrBursts::10        92672                       # Per bank write bursts
system.mem_ctrls.dram.perBankWrBursts::11        92672                       # Per bank write bursts
system.mem_ctrls.dram.perBankWrBursts::12        92672                       # Per bank write bursts
system.mem_ctrls.dram.perBankWrBursts::13        92672                       # Per bank write bursts
system.mem_ctrls.dram.perBankWrBursts::14        92672                       # Per bank write bursts
system.mem_ctrls.dram.perBankWrBursts::15        92672                       # Per bank write bursts
system.mem_ctrls.dram.totQLat             17596420000                       # Total ticks spent queuing
system.mem_ctrls.dram.totBusLat            7440560000                       # Total ticks spent in databus transfers
system.mem_ctrls.dram.totMemAccLat        45498520000                       # Total ticks spent from burst creation until serviced by the DRAM
system.mem_ctrls.dram.avgQLat                11824.66                       # Average queueing delay per DRAM burst
system.mem_ctrls.dram.avgBusLat               5000.00                       # Average bus latency per DRAM burst
system.mem_ctrls.dram.avgMemAccLat           30574.66                       # Average memory access latency per DRAM burst
system.mem_ctrls.dram.readRowHits             1314525                       # Number of row buffer hits during reads
system.mem_ctrls.dram.writeRowHits            1316408                       # Number of row buffer hits during writes
system.mem_ctrls.dram.readRowHitRate            88.34                       # Row buffer hit rate for reads
system.mem_ctrls.dram.writeRowHitRate           88.74                       # Row buffer hit rate for writes
system.mem_ctrls.dram.bytesPerActivate::samples       340574                       # Bytes accessed per row activation
system.mem_ctrls.dram.bytesPerActivate::mean   558.398281                       # Bytes accessed per row activation
system.mem_ctrls.dram.bytesPerActivate::gmean   369.409968                       # Bytes accessed per row activation
system.mem_ctrls.dram.bytesPerActivate::stdev   410.850832                       # Bytes accessed per row activation
system.mem_ctrls.dram.bytesPerActivate::0-127        17261      5.07%      5.07% # Bytes accessed per row activation
system.mem_ctrls.dram.bytesPerActivate::128-255       123559     36.28%     41.35% # Bytes accessed per row activation
system.mem_ctrls.dram.bytesPerActivate::256-383        12657      3.72%     45.06% # Bytes accessed per row activation
system.mem_ctrls.dram.bytesPerActivate::384-511        12947      3.80%     48.87% # Bytes accessed per row activation
system.mem_ctrls.dram.bytesPerActivate::512-639        14695      4.31%     53.18% # Bytes accessed per row activation
system.mem_ctrls.dram.bytesPerActivate::640-767        11791      3.46%     56.64% # Bytes accessed per row activation
system.mem_ctrls.dram.bytesPerActivate::768-895        10847      3.18%     59.83% # Bytes accessed per row activation
system.mem_ctrls.dram.bytesPerActivate::896-1023        11646      3.42%     63.25% # Bytes accessed per row activation
system.mem_ctrls.dram.bytesPerActivate::1024-1151       125171     36.75%    100.00% # Bytes accessed per row activation
system.mem_ctrls.dram.bytesPerActivate::total       340574                       # Bytes accessed per row activation
system.mem_ctrls.dram.bytesRead              95239168                       # Total number of bytes read from DRAM
system.mem_ctrls.dram.bytesWritten           94937408                       # Total number of bytes written to DRAM
system.mem_ctrls.dram.avgRdBW              359.259808                       # Average DRAM read bandwidth in MiBytes/s
system.mem_ctrls.dram.avgWrBW              358.121513                       # Average DRAM write bandwidth in MiBytes/s
system.mem_ctrls.dram.peakBW                 12800.00                       # Theoretical peak bandwidth in MiByte/s
system.mem_ctrls.dram.busUtil                    5.60                       # Data bus utilization in percentage
system.mem_ctrls.dram.busUtilRead                2.81                       # Data bus utilization in percentage for reads
system.mem_ctrls.dram.busUtilWrite               2.80                       # Data bus utilization in percentage for writes
system.mem_ctrls.dram.pageHitRate               88.54                       # Row buffer hit rate, read and write combined
system.mem_ctrls.dram.power_state.pwrStateResidencyTicks::UNDEFINED 265098310000                       # Cumulative time (in ticks) in various power states
system.mem_ctrls.dram.rank0.actEnergy      1220590140                       # Energy for activate commands per rank (pJ)
system.mem_ctrls.dram.rank0.preEnergy       648759045                       # Energy for precharge commands per rank (pJ)
system.mem_ctrls.dram.rank0.readEnergy     5312831160                       # Energy for read commands per rank (pJ)
system.mem_ctrls.dram.rank0.writeEnergy    3872138580                       # Energy for write commands per rank (pJ)
system.mem_ctrls.dram.rank0.refreshEnergy 20926033440.000004                       # Energy for refresh commands per rank (pJ)
system.mem_ctrls.dram.rank0.actBackEnergy  62175622800                       # Energy for active background per rank (pJ)
system.mem_ctrls.dram.rank0.preBackEnergy  49439331840                       # Energy for precharge background per rank (pJ)
system.mem_ctrls.dram.rank0.actPowerDownEnergy            0                       # Energy for active power-down per rank (pJ)
system.mem_ctrls.dram.rank0.prePowerDownEnergy            0                       # Energy for precharge power-down per rank (pJ)
system.mem_ctrls.dram.rank0.selfRefreshEnergy            0                       # Energy for self refresh per rank (pJ)
system.mem_ctrls.dram.rank0.totalEnergy  143595307005                       # Total energy per rank (pJ)
system.mem_ctrls.dram.rank0.averagePower   541.668134                       # Core power per rank (mW)
system.mem_ctrls.dram.rank0.totalIdleTime            0                       # Total Idle time Per DRAM Rank
system.mem_ctrls.dram.rank0.pwrStateTime::IDLE 126540550500                       # Time in different power states
system.mem_ctrls.dram.rank0.pwrStateTime::REF   8851960000                       # Time in different power states
system.mem_ctrls.dram.rank0.pwrStateTime::SREF            0                       # Time in different power states
system.mem_ctrls.dram.rank0.pwrStateTime::PRE_PDN            0                       # Time in different power states
system.mem_ctrls.dram.rank0.pwrStateTime::ACT 129705799500                       # Time in different power states
system.mem_ctrls.dram.rank0.pwrStateTime::ACT_PDN            0                       # Time in different power states
system.mem_ctrls.dram.rank1.actEnergy      1211122500                       # Energy for activate commands per rank (pJ)
system.mem_ctrls.dram.rank1.preEnergy       643719285                       # Energy for precharge commands per rank (pJ)
system.mem_ctrls.dram.rank1.readEnergy     5312288520                       # Energy for read commands per rank (pJ)
system.mem_ctrls.dram.rank1.writeEnergy    3871193760                       # Energy for write commands per rank (pJ)
system.mem_ctrls.dram.rank1.refreshEnergy 20926033440.000004                       # Energy for refresh commands per rank (pJ)
system.mem_ctrls.dram.rank1.actBackEnergy  61938310710                       # Energy for active background per rank (pJ)
system.mem_ctrls.dram.rank1.preBackEnergy  49639173600                       # Energy for precharge background per rank (pJ)
system.mem_ctrls.dram.rank1.actPowerDownEnergy            0                       # Energy for active power-down per rank (pJ)
system.mem_ctrls.dram.rank1.prePowerDownEnergy            0                       # Energy for precharge power-down per rank (pJ)
system.mem_ctrls.dram.rank1.selfRefreshEnergy            0                       # Energy for self refresh per rank (pJ)
system.mem_ctrls.dram.rank1.totalEnergy  143541841815                       # Total energy per rank (pJ)
system.mem_ctrls.dram.rank1.averagePower   541.466454                       # Core power per rank (mW)
system.mem_ctrls.dram.rank1.totalIdleTime            0                       # Total Idle time Per DRAM Rank
system.mem_ctrls.dram.rank1.pwrStateTime::IDLE 127085969750                       # Time in different power states
system.mem_ctrls.dram.rank1.pwrStateTime::REF   8851960000                       # Time in different power states
system.mem_ctrls.dram.rank1.pwrStateTime::SREF            0                       # Time in different power states
system.mem_ctrls.dram.rank1.pwrStateTime::PRE_PDN            0                       # Time in different power states
system.mem_ctrls.dram.rank1.pwrStateTime::ACT 129160380250                       # Time in different power states
system.mem_ctrls.dram.rank1.pwrStateTime::ACT_PDN            0                       # Time in different power states
system.mem_ctrls.power_state.pwrStateResidencyTicks::UNDEFINED 265098310000                       # Cumulative time (in ticks) in various power states
system.membus.trans_dist::ReadResp                612                       # Transaction distribution
system.membus.trans_dist::WritebackDirty      1483422                       # Transaction distribution
system.membus.trans_dist::CleanEvict              295                       # Transaction distribution
system.membus.trans_dist::ReadExReq           1487500                       # Transaction distribution
system.membus.trans_dist::ReadExResp          1487500                       # Transaction distribution
system.membus.trans_dist::ReadSharedReq           612                       # Transaction distribution
system.membus.pkt_count_system.l2.mem_side_port::system.mem_ctrls.port      4459941                       # Packet count per connected requestor and responder (bytes)
system.membus.pkt_count::total                4459941                       # Packet count per connected requestor and responder (bytes)
system.membus.pkt_size_system.l2.mem_side_port::system.mem_ctrls.port    190178176                       # Cumulative packet size per connected requestor and responder (bytes)
system.membus.pkt_size::total               190178176                       # Cumulative packet size per connected requestor and responder (bytes)
system.membus.snoops                                0                       # Total snoops (count)
system.membus.snoopTraffic                          0                       # Total snoop traffic (bytes)
system.membus.snoop_fanout::samples           1488112                       # Request fanout histogram
system.membus.snoop_fanout::mean                    0                       # Request fanout histogram
system.membus.snoop_fanout::stdev                   0                       # Request fanout histogram
system.membus.snoop_fanout::underflows              0      0.00%      0.00% # Request fanout histogram
system.membus.snoop_fanout::0                 1488112    100.00%    100.00% # Request fanout histogram
system.membus.snoop_fanout::1                       0      0.00%    100.00% # Request fanout histogram
system.membus.snoop_fanout::overflows               0      0.00%    100.00% # Request fanout histogram
system.membus.snoop_fanout::min_value               0                       # Request fanout histogram
system.membus.snoop_fanout::max_value               0                       # Request fanout histogram
system.membus.snoop_fanout::total             1488112                       # Request fanout histogram
system.membus.power_state.pwrStateResidencyTicks::UNDEFINED 265098310000                       # Cumulative time (in ticks) in various power states
system.membus.reqLayer0.occupancy          8905517000                       # Layer occupancy (ticks)
system.membus.reqLayer0.utilization               3.4                       # Layer utilization (%)
system.membus.respLayer1.occupancy         7832904500                       # Layer occupancy (ticks)
system.membus.respLayer1.utilization              3.0                       # Layer utilization (%)
system.tol2bus.trans_dist::ReadResp             24149                       # Transaction distribution
system.tol2bus.trans_dist::WritebackDirty      2999491                       # Transaction distribution
system.tol2bus.trans_dist::WritebackClean          456                       # Transaction distribution
system.tol2bus.trans_dist::CleanEvict           12336                       # Transaction distribution
system.tol2bus.trans_dist::ReadExReq          1504930                       # Transaction distribution
system.tol2bus.trans_dist::ReadExResp         1504930                       # Transaction distribution
system.tol2bus.trans_dist::ReadCleanReq           756                       # Transaction distribution
system.tol2bus.trans_dist::ReadSharedReq        23393                       # Transaction distribution
system.tol2bus.pkt_count_system.cpu.icache.mem_side_port::system.l2.cpu_side_port         1968                       # Packet count per connected requestor and responder (bytes)
system.tol2bus.pkt_count_system.cpu.dcache.mem_side_port::system.l2.cpu_side_port      4584457                       # Packet count per connected requestor and responder (bytes)
system.tol2bus.pkt_count::total               4586425                       # Packet count per connected requestor and responder (bytes)
system.tol2bus.pkt_size_system.cpu.icache.mem_side_port::system.l2.cpu_side_port        77568                       # Cumulative packet size per connected requestor and responder (bytes)
system.tol2bus.pkt_size_system.cpu.dcache.mem_side_port::system.l2.cpu_side_port    194841088                       # Cumulative packet size per connected requestor and responder (bytes)
system.tol2bus.pkt_size::total              194918656                       # Cumulative packet size per connected requestor and responder (bytes)
system.tol2bus.snoops                         1484016                       # Total snoops (count)
system.tol2bus.snoopTraffic                  94939008                       # Total snoop traffic (bytes)
system.tol2bus.snoop_fanout::samples          3013095                       # Request fanout histogram
system.tol2bus.snoop_fanout::mean            0.003968                       # Request fanout histogram
system.tol2bus.snoop_fanout::stdev           0.062870                       # Request fanout histogram
system.tol2bus.snoop_fanout::underflows             0      0.00%      0.00% # Request fanout histogram
system.tol2bus.snoop_fanout::0                3001138     99.60%     99.60% # Request fanout histogram
system.tol2bus.snoop_fanout::1                  11957      0.40%    100.00% # Request fanout histogram
system.tol2bus.snoop_fanout::2                      0      0.00%    100.00% # Request fanout histogram
system.tol2bus.snoop_fanout::overflows              0      0.00%    100.00% # Request fanout histogram
system.tol2bus.snoop_fanout::min_value              0                       # Request fanout histogram
system.tol2bus.snoop_fanout::max_value              1                       # Request fanout histogram
system.tol2bus.snoop_fanout::total            3013095                       # Request fanout histogram
system.tol2bus.power_state.pwrStateResidencyTicks::UNDEFINED 265098310000                       # Cumulative time (in ticks) in various power states
system.tol2bus.reqLayer0.occupancy         6090396000                       # Layer occupancy (ticks)
system.tol2bus.reqLayer0.utilization              2.3                       # Layer utilization (%)
system.tol2bus.respLayer0.occupancy           2269998                       # Layer occupancy (ticks)
system.tol2bus.respLayer0.utilization             0.0                       # Layer utilization (%)
system.tol2bus.respLayer1.occupancy        4584971997                       # Layer occupancy (ticks)
system.tol2bus.respLayer1.utilization             1.7                       # Layer utilization (%)
system.voltage_domain.voltage                       1                       # Voltage in Volts

---------- End Simulation Statistics   ----------
