
---------- Begin Simulation Statistics ----------
final_tick                                86784575500                       # Number of ticks from beginning of simulation (restored from checkpoints and never reset)
host_inst_rate                                 175863                       # Simulator instruction rate (inst/s)
host_mem_usage                                 656392                       # Number of bytes of host memory used
host_op_rate                                   176208                       # Simulator op (including micro ops) rate (op/s)
host_seconds                                   568.62                       # Real time elapsed on the host
host_tick_rate                              152621817                       # Simulator tick rate (ticks/s)
sim_freq                                 1000000000000                       # Frequency of simulated ticks
sim_insts                                   100000001                       # Number of instructions simulated
sim_ops                                     100196356                       # Number of ops (including micro ops) simulated
sim_seconds                                  0.086785                       # Number of seconds simulated
sim_ticks                                 86784575500                       # Number of ticks simulated
system.cpu.committedInsts                   100000001                       # Number of instructions committed
system.cpu.committedOps                     100196356                       # Number of ops (including micro ops) committed
system.cpu.cpi                               1.735691                       # CPI: cycles per instruction
system.cpu.discardedOps                        189514                       # Number of ops (including micro ops) which were discarded before commit
system.cpu.idleCycles                        40629027                       # Total number of cycles that the object has spent stopped
system.cpu.ipc                               0.576139                       # IPC: instructions per cycle
system.cpu.numCycles                        173569151                       # number of cpu cycles simulated
system.cpu.numFetchSuspends                         0                       # Number of times Execute suspended instruction fetching
system.cpu.numWorkItemsCompleted                    0                       # number of work items this cpu completed
system.cpu.numWorkItemsStarted                      0                       # number of work items this cpu started
system.cpu.op_class_0::No_OpClass                   0      0.00%      0.00% # Class of committed instruction
system.cpu.op_class_0::IntAlu                46526863     46.44%     46.44% # Class of committed instruction
system.cpu.op_class_0::IntMult                  20723      0.02%     46.46% # Class of committed instruction
system.cpu.op_class_0::IntDiv                       0      0.00%     46.46% # Class of committed instruction
system.cpu.op_class_0::FloatAdd                     0      0.00%     46.46% # Class of committed instruction
system.cpu.op_class_0::FloatCmp                     0      0.00%     46.46% # Class of committed instruction
system.cpu.op_class_0::FloatCvt                     0      0.00%     46.46% # Class of committed instruction
system.cpu.op_class_0::FloatMult                    0      0.00%     46.46% # Class of committed instruction
system.cpu.op_class_0::FloatMultAcc                 0      0.00%     46.46% # Class of committed instruction
system.cpu.op_class_0::FloatDiv                     0      0.00%     46.46% # Class of committed instruction
system.cpu.op_class_0::FloatMisc                    0      0.00%     46.46% # Class of committed instruction
system.cpu.op_class_0::FloatSqrt                    0      0.00%     46.46% # Class of committed instruction
system.cpu.op_class_0::SimdAdd                      0      0.00%     46.46% # Class of committed instruction
system.cpu.op_class_0::SimdAddAcc                   0      0.00%     46.46% # Class of committed instruction
system.cpu.op_class_0::SimdAlu                      0      0.00%     46.46% # Class of committed instruction
system.cpu.op_class_0::SimdCmp                      0      0.00%     46.46% # Class of committed instruction
system.cpu.op_class_0::SimdCvt                      0      0.00%     46.46% # Class of committed instruction
system.cpu.op_class_0::SimdMisc                     0      0.00%     46.46% # Class of committed instruction
system.cpu.op_class_0::SimdMult                     0      0.00%     46.46% # Class of committed instruction
system.cpu.op_class_0::SimdMultAcc                  0      0.00%     46.46% # Class of committed instruction
system.cpu.op_class_0::SimdShift                    0      0.00%     46.46% # Class of committed instruction
system.cpu.op_class_0::SimdShiftAcc                 0      0.00%     46.46% # Class of committed instruction
system.cpu.op_class_0::SimdDiv                      0      0.00%     46.46% # Class of committed instruction
system.cpu.op_class_0::SimdSqrt                     0      0.00%     46.46% # Class of committed instruction
system.cpu.op_class_0::SimdFloatAdd                 0      0.00%     46.46% # Class of committed instruction
system.cpu.op_class_0::SimdFloatAlu                 0      0.00%     46.46% # Class of committed instruction
system.cpu.op_class_0::SimdFloatCmp                 0      0.00%     46.46% # Class of committed instruction
system.cpu.op_class_0::SimdFloatCvt                 0      0.00%     46.46% # Class of committed instruction
system.cpu.op_class_0::SimdFloatDiv                 0      0.00%     46.46% # Class of committed instruction
system.cpu.op_class_0::SimdFloatMisc               18      0.00%     46.46% # Class of committed instruction
system.cpu.op_class_0::SimdFloatMult                0      0.00%     46.46% # Class of committed instruction
system.cpu.op_class_0::SimdFloatMultAcc             0      0.00%     46.46% # Class of committed instruction
system.cpu.op_class_0::SimdFloatSqrt                0      0.00%     46.46% # Class of committed instruction
system.cpu.op_class_0::SimdReduceAdd                0      0.00%     46.46% # Class of committed instruction
system.cpu.op_class_0::SimdReduceAlu                0      0.00%     46.46% # Class of committed instruction
system.cpu.op_class_0::SimdReduceCmp                0      0.00%     46.46% # Class of committed instruction
system.cpu.op_class_0::SimdFloatReduceAdd            0      0.00%     46.46% # Class of committed instruction
system.cpu.op_class_0::SimdFloatReduceCmp            0      0.00%     46.46% # Class of committed instruction
system.cpu.op_class_0::SimdAes                      0      0.00%     46.46% # Class of committed instruction
system.cpu.op_class_0::SimdAesMix                   0      0.00%     46.46% # Class of committed instruction
system.cpu.op_class_0::SimdSha1Hash                 0      0.00%     46.46% # Class of committed instruction
system.cpu.op_class_0::SimdSha1Hash2                0      0.00%     46.46% # Class of committed instruction
system.cpu.op_class_0::SimdSha256Hash               0      0.00%     46.46% # Class of committed instruction
system.cpu.op_class_0::SimdSha256Hash2              0      0.00%     46.46% # Class of committed instruction
system.cpu.op_class_0::SimdShaSigma2                0      0.00%     46.46% # Class of committed instruction
system.cpu.op_class_0::SimdShaSigma3                0      0.00%     46.46% # Class of committed instruction
system.cpu.op_class_0::SimdPredAlu                  0      0.00%     46.46% # Class of committed instruction
system.cpu.op_class_0::MemRead               42690537     42.61%     89.06% # Class of committed instruction
system.cpu.op_class_0::MemWrite              10958215     10.94%    100.00% # Class of committed instruction
system.cpu.op_class_0::FloatMemRead                 0      0.00%    100.00% # Class of committed instruction
system.cpu.op_class_0::FloatMemWrite                0      0.00%    100.00% # Class of committed instruction
system.cpu.op_class_0::IprAccess                    0      0.00%    100.00% # Class of committed instruction
system.cpu.op_class_0::InstPrefetch                 0      0.00%    100.00% # Class of committed instruction
system.cpu.op_class_0::total                100196356                       # Class of committed instruction
system.cpu.tickCycles                       132940124                       # Number of cycles that the object actually ticked
system.cpu.workload.numSyscalls                    85                       # Number of system calls
system.membus.snoop_filter.hit_multi_requests            0                       # Number of requests hitting in the snoop filter with multiple (>1) holders of the requested data.
system.membus.snoop_filter.hit_multi_snoops            0                       # Number of snoops hitting in the snoop filter with multiple (>1) holders of the requested data.
system.membus.snoop_filter.hit_single_requests       224614                       # Number of requests hitting in the snoop filter with a single holder of the requested data.
system.membus.snoop_filter.hit_single_snoops            0                       # Number of snoops hitting in the snoop filter with a single holder of the requested data.
system.membus.snoop_filter.tot_requests        466095                       # Total number of requests made to the snoop filter.
system.membus.snoop_filter.tot_snoops               0                       # Total number of snoops made to the snoop filter.
system.tol2bus.snoop_filter.hit_multi_requests          658                       # Number of requests hitting in the snoop filter with multiple (>1) holders of the requested data.
system.tol2bus.snoop_filter.hit_multi_snoops            8                       # Number of snoops hitting in the snoop filter with multiple (>1) holders of the requested data.
system.tol2bus.snoop_filter.hit_single_requests       780314                       # Number of requests hitting in the snoop filter with a single holder of the requested data.
system.tol2bus.snoop_filter.hit_single_snoops         6070                       # Number of snoops hitting in the snoop filter with a single holder of the requested data.
system.tol2bus.snoop_filter.tot_requests      1562153                       # Total number of requests made to the snoop filter.
system.tol2bus.snoop_filter.tot_snoops           6078                       # Total number of snoops made to the snoop filter.
system.clk_domain.clock                          1000                       # Clock period in ticks
system.cpu.branchPred.lookups                 4485848                       # Number of BP lookups
system.cpu.branchPred.condPredicted           3735519                       # Number of conditional branches predicted
system.cpu.branchPred.condIncorrect             81006                       # Number of conditional branches incorrect
system.cpu.branchPred.BTBLookups              2103837                       # Number of BTB lookups
system.cpu.branchPred.BTBHits                 2101841                       # Number of BTB hits
system.cpu.branchPred.BTBHitPct             99.905126                       # BTB Hit Percentage
system.cpu.branchPred.RASUsed                   65381                       # Number of times the RAS was used to get a target.
system.cpu.branchPred.RASIncorrect                 14                       # Number of incorrect RAS predictions.
system.cpu.branchPred.indirectLookups             699                       # Number of indirect predictor lookups.
system.cpu.branchPred.indirectHits                289                       # Number of indirect target hits.
system.cpu.branchPred.indirectMisses              410                       # Number of indirect misses.
system.cpu.branchPred.indirectMispredicted          171                       # Number of mispredicted indirect branches.
system.cpu.dcache.demand_hits::.cpu.data     51232338                       # number of demand (read+write) hits
system.cpu.dcache.demand_hits::total         51232338                       # number of demand (read+write) hits
system.cpu.dcache.overall_hits::.cpu.data     51232810                       # number of overall hits
system.cpu.dcache.overall_hits::total        51232810                       # number of overall hits
system.cpu.dcache.demand_misses::.cpu.data       838113                       # number of demand (read+write) misses
system.cpu.dcache.demand_misses::total         838113                       # number of demand (read+write) misses
system.cpu.dcache.overall_misses::.cpu.data       846060                       # number of overall misses
system.cpu.dcache.overall_misses::total        846060                       # number of overall misses
system.cpu.dcache.demand_miss_latency::.cpu.data  29411036498                       # number of demand (read+write) miss cycles
system.cpu.dcache.demand_miss_latency::total  29411036498                       # number of demand (read+write) miss cycles
system.cpu.dcache.overall_miss_latency::.cpu.data  29411036498                       # number of overall miss cycles
system.cpu.dcache.overall_miss_latency::total  29411036498                       # number of overall miss cycles
system.cpu.dcache.demand_accesses::.cpu.data     52070451                       # number of demand (read+write) accesses
system.cpu.dcache.demand_accesses::total     52070451                       # number of demand (read+write) accesses
system.cpu.dcache.overall_accesses::.cpu.data     52078870                       # number of overall (read+write) accesses
system.cpu.dcache.overall_accesses::total     52078870                       # number of overall (read+write) accesses
system.cpu.dcache.demand_miss_rate::.cpu.data     0.016096                       # miss rate for demand accesses
system.cpu.dcache.demand_miss_rate::total     0.016096                       # miss rate for demand accesses
system.cpu.dcache.overall_miss_rate::.cpu.data     0.016246                       # miss rate for overall accesses
system.cpu.dcache.overall_miss_rate::total     0.016246                       # miss rate for overall accesses
system.cpu.dcache.demand_avg_miss_latency::.cpu.data 35091.970293                       # average overall miss latency
system.cpu.dcache.demand_avg_miss_latency::total 35091.970293                       # average overall miss latency
system.cpu.dcache.overall_avg_miss_latency::.cpu.data 34762.353140                       # average overall miss latency
system.cpu.dcache.overall_avg_miss_latency::total 34762.353140                       # average overall miss latency
system.cpu.dcache.blocked_cycles::no_mshrs       229057                       # number of cycles access was blocked
system.cpu.dcache.blocked_cycles::no_targets            0                       # number of cycles access was blocked
system.cpu.dcache.blocked::no_mshrs              3615                       # number of cycles access was blocked
system.cpu.dcache.blocked::no_targets               0                       # number of cycles access was blocked
system.cpu.dcache.avg_blocked_cycles::no_mshrs    63.362932                       # average number of cycles each access was blocked
system.cpu.dcache.avg_blocked_cycles::no_targets          nan                       # average number of cycles each access was blocked
system.cpu.dcache.writebacks::.writebacks       685558                       # number of writebacks
system.cpu.dcache.writebacks::total            685558                       # number of writebacks
system.cpu.dcache.demand_mshr_hits::.cpu.data        64953                       # number of demand (read+write) MSHR hits
system.cpu.dcache.demand_mshr_hits::total        64953                       # number of demand (read+write) MSHR hits
system.cpu.dcache.overall_mshr_hits::.cpu.data        64953                       # number of overall MSHR hits
system.cpu.dcache.overall_mshr_hits::total        64953                       # number of overall MSHR hits
system.cpu.dcache.demand_mshr_misses::.cpu.data       773160                       # number of demand (read+write) MSHR misses
system.cpu.dcache.demand_mshr_misses::total       773160                       # number of demand (read+write) MSHR misses
system.cpu.dcache.overall_mshr_misses::.cpu.data       781103                       # number of overall MSHR misses
system.cpu.dcache.overall_mshr_misses::total       781103                       # number of overall MSHR misses
system.cpu.dcache.demand_mshr_miss_latency::.cpu.data  26971229500                       # number of demand (read+write) MSHR miss cycles
system.cpu.dcache.demand_mshr_miss_latency::total  26971229500                       # number of demand (read+write) MSHR miss cycles
system.cpu.dcache.overall_mshr_miss_latency::.cpu.data  27646815999                       # number of overall MSHR miss cycles
system.cpu.dcache.overall_mshr_miss_latency::total  27646815999                       # number of overall MSHR miss cycles
system.cpu.dcache.demand_mshr_miss_rate::.cpu.data     0.014848                       # mshr miss rate for demand accesses
system.cpu.dcache.demand_mshr_miss_rate::total     0.014848                       # mshr miss rate for demand accesses
system.cpu.dcache.overall_mshr_miss_rate::.cpu.data     0.014998                       # mshr miss rate for overall accesses
system.cpu.dcache.overall_mshr_miss_rate::total     0.014998                       # mshr miss rate for overall accesses
system.cpu.dcache.demand_avg_mshr_miss_latency::.cpu.data 34884.408790                       # average overall mshr miss latency
system.cpu.dcache.demand_avg_mshr_miss_latency::total 34884.408790                       # average overall mshr miss latency
system.cpu.dcache.overall_avg_mshr_miss_latency::.cpu.data 35394.584324                       # average overall mshr miss latency
system.cpu.dcache.overall_avg_mshr_miss_latency::total 35394.584324                       # average overall mshr miss latency
system.cpu.dcache.replacements                 780079                       # number of replacements
system.cpu.dcache.ReadReq_hits::.cpu.data     40668788                       # number of ReadReq hits
system.cpu.dcache.ReadReq_hits::total        40668788                       # number of ReadReq hits
system.cpu.dcache.ReadReq_misses::.cpu.data       452581                       # number of ReadReq misses
system.cpu.dcache.ReadReq_misses::total        452581                       # number of ReadReq misses
system.cpu.dcache.ReadReq_miss_latency::.cpu.data  11788411500                       # number of ReadReq miss cycles
system.cpu.dcache.ReadReq_miss_latency::total  11788411500                       # number of ReadReq miss cycles
system.cpu.dcache.ReadReq_accesses::.cpu.data     41121369                       # number of ReadReq accesses(hits+misses)
system.cpu.dcache.ReadReq_accesses::total     41121369                       # number of ReadReq accesses(hits+misses)
system.cpu.dcache.ReadReq_miss_rate::.cpu.data     0.011006                       # miss rate for ReadReq accesses
system.cpu.dcache.ReadReq_miss_rate::total     0.011006                       # miss rate for ReadReq accesses
system.cpu.dcache.ReadReq_avg_miss_latency::.cpu.data 26047.075551                       # average ReadReq miss latency
system.cpu.dcache.ReadReq_avg_miss_latency::total 26047.075551                       # average ReadReq miss latency
system.cpu.dcache.ReadReq_mshr_hits::.cpu.data         1555                       # number of ReadReq MSHR hits
system.cpu.dcache.ReadReq_mshr_hits::total         1555                       # number of ReadReq MSHR hits
system.cpu.dcache.ReadReq_mshr_misses::.cpu.data       451026                       # number of ReadReq MSHR misses
system.cpu.dcache.ReadReq_mshr_misses::total       451026                       # number of ReadReq MSHR misses
system.cpu.dcache.ReadReq_mshr_miss_latency::.cpu.data  11298447500                       # number of ReadReq MSHR miss cycles
system.cpu.dcache.ReadReq_mshr_miss_latency::total  11298447500                       # number of ReadReq MSHR miss cycles
system.cpu.dcache.ReadReq_mshr_miss_rate::.cpu.data     0.010968                       # mshr miss rate for ReadReq accesses
system.cpu.dcache.ReadReq_mshr_miss_rate::total     0.010968                       # mshr miss rate for ReadReq accesses
system.cpu.dcache.ReadReq_avg_mshr_miss_latency::.cpu.data 25050.545867                       # average ReadReq mshr miss latency
system.cpu.dcache.ReadReq_avg_mshr_miss_latency::total 25050.545867                       # average ReadReq mshr miss latency
system.cpu.dcache.WriteReq_hits::.cpu.data     10563550                       # number of WriteReq hits
system.cpu.dcache.WriteReq_hits::total       10563550                       # number of WriteReq hits
system.cpu.dcache.WriteReq_misses::.cpu.data       385532                       # number of WriteReq misses
system.cpu.dcache.WriteReq_misses::total       385532                       # number of WriteReq misses
system.cpu.dcache.WriteReq_miss_latency::.cpu.data  17622624998                       # number of WriteReq miss cycles
system.cpu.dcache.WriteReq_miss_latency::total  17622624998                       # number of WriteReq miss cycles
system.cpu.dcache.WriteReq_accesses::.cpu.data     10949082                       # number of WriteReq accesses(hits+misses)
system.cpu.dcache.WriteReq_accesses::total     10949082                       # number of WriteReq accesses(hits+misses)
system.cpu.dcache.WriteReq_miss_rate::.cpu.data     0.035211                       # miss rate for WriteReq accesses
system.cpu.dcache.WriteReq_miss_rate::total     0.035211                       # miss rate for WriteReq accesses
system.cpu.dcache.WriteReq_avg_miss_latency::.cpu.data 45709.889187                       # average WriteReq miss latency
system.cpu.dcache.WriteReq_avg_miss_latency::total 45709.889187                       # average WriteReq miss latency
system.cpu.dcache.WriteReq_mshr_hits::.cpu.data        63398                       # number of WriteReq MSHR hits
system.cpu.dcache.WriteReq_mshr_hits::total        63398                       # number of WriteReq MSHR hits
system.cpu.dcache.WriteReq_mshr_misses::.cpu.data       322134                       # number of WriteReq MSHR misses
system.cpu.dcache.WriteReq_mshr_misses::total       322134                       # number of WriteReq MSHR misses
system.cpu.dcache.WriteReq_mshr_miss_latency::.cpu.data  15672782000                       # number of WriteReq MSHR miss cycles
system.cpu.dcache.WriteReq_mshr_miss_latency::total  15672782000                       # number of WriteReq MSHR miss cycles
system.cpu.dcache.WriteReq_mshr_miss_rate::.cpu.data     0.029421                       # mshr miss rate for WriteReq accesses
system.cpu.dcache.WriteReq_mshr_miss_rate::total     0.029421                       # mshr miss rate for WriteReq accesses
system.cpu.dcache.WriteReq_avg_mshr_miss_latency::.cpu.data 48652.989129                       # average WriteReq mshr miss latency
system.cpu.dcache.WriteReq_avg_mshr_miss_latency::total 48652.989129                       # average WriteReq mshr miss latency
system.cpu.dcache.SoftPFReq_hits::.cpu.data          472                       # number of SoftPFReq hits
system.cpu.dcache.SoftPFReq_hits::total           472                       # number of SoftPFReq hits
system.cpu.dcache.SoftPFReq_misses::.cpu.data         7947                       # number of SoftPFReq misses
system.cpu.dcache.SoftPFReq_misses::total         7947                       # number of SoftPFReq misses
system.cpu.dcache.SoftPFReq_accesses::.cpu.data         8419                       # number of SoftPFReq accesses(hits+misses)
system.cpu.dcache.SoftPFReq_accesses::total         8419                       # number of SoftPFReq accesses(hits+misses)
system.cpu.dcache.SoftPFReq_miss_rate::.cpu.data     0.943936                       # miss rate for SoftPFReq accesses
system.cpu.dcache.SoftPFReq_miss_rate::total     0.943936                       # miss rate for SoftPFReq accesses
system.cpu.dcache.SoftPFReq_mshr_misses::.cpu.data         7943                       # number of SoftPFReq MSHR misses
system.cpu.dcache.SoftPFReq_mshr_misses::total         7943                       # number of SoftPFReq MSHR misses
system.cpu.dcache.SoftPFReq_mshr_miss_latency::.cpu.data    675586499                       # number of SoftPFReq MSHR miss cycles
system.cpu.dcache.SoftPFReq_mshr_miss_latency::total    675586499                       # number of SoftPFReq MSHR miss cycles
system.cpu.dcache.SoftPFReq_mshr_miss_rate::.cpu.data     0.943461                       # mshr miss rate for SoftPFReq accesses
system.cpu.dcache.SoftPFReq_mshr_miss_rate::total     0.943461                       # mshr miss rate for SoftPFReq accesses
system.cpu.dcache.SoftPFReq_avg_mshr_miss_latency::.cpu.data 85054.324437                       # average SoftPFReq mshr miss latency
system.cpu.dcache.SoftPFReq_avg_mshr_miss_latency::total 85054.324437                       # average SoftPFReq mshr miss latency
system.cpu.dcache.LoadLockedReq_hits::.cpu.data           38                       # number of LoadLockedReq hits
system.cpu.dcache.LoadLockedReq_hits::total           38                       # number of LoadLockedReq hits
system.cpu.dcache.LoadLockedReq_accesses::.cpu.data           38                       # number of LoadLockedReq accesses(hits+misses)
system.cpu.dcache.LoadLockedReq_accesses::total           38                       # number of LoadLockedReq accesses(hits+misses)
system.cpu.dcache.StoreCondReq_hits::.cpu.data           38                       # number of StoreCondReq hits
system.cpu.dcache.StoreCondReq_hits::total           38                       # number of StoreCondReq hits
system.cpu.dcache.StoreCondReq_accesses::.cpu.data           38                       # number of StoreCondReq accesses(hits+misses)
system.cpu.dcache.StoreCondReq_accesses::total           38                       # number of StoreCondReq accesses(hits+misses)
system.cpu.dcache.power_state.pwrStateResidencyTicks::UNDEFINED  86784575500                       # Cumulative time (in ticks) in various power states
system.cpu.dcache.tags.tagsinuse          1008.246956                       # Cycle average of tags in use
system.cpu.dcache.tags.total_refs            52013989                       # Total number of references to valid blocks.
system.cpu.dcache.tags.sampled_refs            781103                       # Sample count of references to valid blocks.
system.cpu.dcache.tags.avg_refs             66.590436                       # Average number of references to valid blocks.
system.cpu.dcache.tags.warmup_cycle            176500                       # Cycle when the warmup percentage was hit.
system.cpu.dcache.tags.occ_blocks::.cpu.data  1008.246956                       # Average occupied blocks per requestor
system.cpu.dcache.tags.occ_percent::.cpu.data     0.984616                       # Average percentage of cache occupancy
system.cpu.dcache.tags.occ_percent::total     0.984616                       # Average percentage of cache occupancy
system.cpu.dcache.tags.occ_task_id_blocks::1024         1024                       # Occupied blocks per task id
system.cpu.dcache.tags.age_task_id_blocks_1024::0          100                       # Occupied blocks per task id
system.cpu.dcache.tags.age_task_id_blocks_1024::1          386                       # Occupied blocks per task id
system.cpu.dcache.tags.age_task_id_blocks_1024::2          529                       # Occupied blocks per task id
system.cpu.dcache.tags.age_task_id_blocks_1024::3            9                       # Occupied blocks per task id
system.cpu.dcache.tags.occ_task_id_percent::1024            1                       # Percentage of cache occupancy per task id
system.cpu.dcache.tags.tag_accesses          52860049                       # Number of tag accesses
system.cpu.dcache.tags.data_accesses         52860049                       # Number of data accesses
system.cpu.dcache.tags.power_state.pwrStateResidencyTicks::UNDEFINED  86784575500                       # Cumulative time (in ticks) in various power states
system.cpu.dtb.instHits                             0                       # ITB inst hits
system.cpu.dtb.instMisses                           0                       # ITB inst misses
system.cpu.dtb.readHits                             0                       # DTB read hits
system.cpu.dtb.readMisses                           0                       # DTB read misses
system.cpu.dtb.writeHits                            0                       # DTB write hits
system.cpu.dtb.writeMisses                          0                       # DTB write misses
system.cpu.dtb.inserts                              0                       # Number of times an entry is inserted into the TLB
system.cpu.dtb.flushTlb                             0                       # Number of times complete TLB was flushed
system.cpu.dtb.flushTlbMva                          0                       # Number of times TLB was flushed by MVA
system.cpu.dtb.flushTlbMvaAsid                      0                       # Number of times TLB was flushed by MVA & ASID
system.cpu.dtb.flushTlbAsid                         0                       # Number of times TLB was flushed by ASID
system.cpu.dtb.flushedEntries                       0                       # Number of entries that have been flushed from TLB
system.cpu.dtb.alignFaults                          0                       # Number of TLB faults due to alignment restrictions
system.cpu.dtb.prefetchFaults                       0                       # Number of TLB faults due to prefetch
system.cpu.dtb.domainFaults                         0                       # Number of TLB faults due to domain restrictions
system.cpu.dtb.permsFaults                          0                       # Number of TLB faults due to permissions restrictions
system.cpu.dtb.readAccesses                         0                       # DTB read accesses
system.cpu.dtb.writeAccesses                        0                       # DTB write accesses
system.cpu.dtb.instAccesses                         0                       # ITB inst accesses
system.cpu.dtb.hits                                 0                       # Total TLB (inst and data) hits
system.cpu.dtb.misses                               0                       # Total TLB (inst and data) misses
system.cpu.dtb.accesses                             0                       # Total TLB (inst and data) accesses
system.cpu.dtb.stage2_mmu.stage2_tlb.instHits            0                       # ITB inst hits
system.cpu.dtb.stage2_mmu.stage2_tlb.instMisses            0                       # ITB inst misses
system.cpu.dtb.stage2_mmu.stage2_tlb.readHits            0                       # DTB read hits
system.cpu.dtb.stage2_mmu.stage2_tlb.readMisses            0                       # DTB read misses
system.cpu.dtb.stage2_mmu.stage2_tlb.writeHits            0                       # DTB write hits
system.cpu.dtb.stage2_mmu.stage2_tlb.writeMisses            0                       # DTB write misses
system.cpu.dtb.stage2_mmu.stage2_tlb.inserts            0                       # Number of times an entry is inserted into the TLB
system.cpu.dtb.stage2_mmu.stage2_tlb.flushTlb            0                       # Number of times complete TLB was flushed
system.cpu.dtb.stage2_mmu.stage2_tlb.flushTlbMva            0                       # Number of times TLB was flushed by MVA
system.cpu.dtb.stage2_mmu.stage2_tlb.flushTlbMvaAsid            0                       # Number of times TLB was flushed by MVA & ASID
system.cpu.dtb.stage2_mmu.stage2_tlb.flushTlbAsid            0                       # Number of times TLB was flushed by ASID
system.cpu.dtb.stage2_mmu.stage2_tlb.flushedEntries            0                       # Number of entries that have been flushed from TLB
system.cpu.dtb.stage2_mmu.stage2_tlb.alignFaults            0                       # Number of TLB faults due to alignment restrictions
system.cpu.dtb.stage2_mmu.stage2_tlb.prefetchFaults            0                       # Number of TLB faults due to prefetch
system.cpu.dtb.stage2_mmu.stage2_tlb.domainFaults            0                       # Number of TLB faults due to domain restrictions
system.cpu.dtb.stage2_mmu.stage2_tlb.permsFaults            0                       # Number of TLB faults due to permissions restrictions
system.cpu.dtb.stage2_mmu.stage2_tlb.readAccesses            0                       # DTB read accesses
system.cpu.dtb.stage2_mmu.stage2_tlb.writeAccesses            0                       # DTB write accesses
system.cpu.dtb.stage2_mmu.stage2_tlb.instAccesses            0                       # ITB inst accesses
system.cpu.dtb.stage2_mmu.stage2_tlb.hits            0                       # Total TLB (inst and data) hits
system.cpu.dtb.stage2_mmu.stage2_tlb.misses            0                       # Total TLB (inst and data) misses
system.cpu.dtb.stage2_mmu.stage2_tlb.accesses            0                       # Total TLB (inst and data) accesses
system.cpu.dtb.stage2_mmu.stage2_tlb.walker.walks            0                       # Table walker walks requested
system.cpu.dtb.stage2_mmu.stage2_tlb.walker.requestOrigin_Requested::Data            0                       # Table walker requests started/completed, data/inst
system.cpu.dtb.stage2_mmu.stage2_tlb.walker.requestOrigin_Requested::Inst            0                       # Table walker requests started/completed, data/inst
system.cpu.dtb.stage2_mmu.stage2_tlb.walker.requestOrigin_Requested::total            0                       # Table walker requests started/completed, data/inst
system.cpu.dtb.stage2_mmu.stage2_tlb.walker.requestOrigin_Completed::Data            0                       # Table walker requests started/completed, data/inst
system.cpu.dtb.stage2_mmu.stage2_tlb.walker.requestOrigin_Completed::Inst            0                       # Table walker requests started/completed, data/inst
system.cpu.dtb.stage2_mmu.stage2_tlb.walker.requestOrigin_Completed::total            0                       # Table walker requests started/completed, data/inst
system.cpu.dtb.stage2_mmu.stage2_tlb.walker.requestOrigin::total            0                       # Table walker requests started/completed, data/inst
system.cpu.dtb.stage2_mmu.stage2_tlb.walker.power_state.pwrStateResidencyTicks::UNDEFINED  86784575500                       # Cumulative time (in ticks) in various power states
system.cpu.dtb.walker.walks                         0                       # Table walker walks requested
system.cpu.dtb.walker.requestOrigin_Requested::Data            0                       # Table walker requests started/completed, data/inst
system.cpu.dtb.walker.requestOrigin_Requested::Inst            0                       # Table walker requests started/completed, data/inst
system.cpu.dtb.walker.requestOrigin_Requested::total            0                       # Table walker requests started/completed, data/inst
system.cpu.dtb.walker.requestOrigin_Completed::Data            0                       # Table walker requests started/completed, data/inst
system.cpu.dtb.walker.requestOrigin_Completed::Inst            0                       # Table walker requests started/completed, data/inst
system.cpu.dtb.walker.requestOrigin_Completed::total            0                       # Table walker requests started/completed, data/inst
system.cpu.dtb.walker.requestOrigin::total            0                       # Table walker requests started/completed, data/inst
system.cpu.dtb.walker.power_state.pwrStateResidencyTicks::UNDEFINED  86784575500                       # Cumulative time (in ticks) in various power states
system.cpu.fetch2.intInstructions            42686114                       # Number of integer instructions successfully decoded
system.cpu.fetch2.fpInstructions                    0                       # Number of floating point instructions successfully decoded
system.cpu.fetch2.vecInstructions                   0                       # Number of SIMD instructions successfully decoded
system.cpu.fetch2.loadInstructions           43475206                       # Number of memory load instructions successfully decoded
system.cpu.fetch2.storeInstructions          11024973                       # Number of memory store instructions successfully decoded
system.cpu.fetch2.amoInstructions                   0                       # Number of memory atomic instructions successfully decoded
system.cpu.icache.demand_hits::.cpu.inst     10278243                       # number of demand (read+write) hits
system.cpu.icache.demand_hits::total         10278243                       # number of demand (read+write) hits
system.cpu.icache.overall_hits::.cpu.inst     10278243                       # number of overall hits
system.cpu.icache.overall_hits::total        10278243                       # number of overall hits
system.cpu.icache.demand_misses::.cpu.inst          738                       # number of demand (read+write) misses
system.cpu.icache.demand_misses::total            738                       # number of demand (read+write) misses
system.cpu.icache.overall_misses::.cpu.inst          738                       # number of overall misses
system.cpu.icache.overall_misses::total           738                       # number of overall misses
system.cpu.icache.demand_miss_latency::.cpu.inst     54490000                       # number of demand (read+write) miss cycles
system.cpu.icache.demand_miss_latency::total     54490000                       # number of demand (read+write) miss cycles
system.cpu.icache.overall_miss_latency::.cpu.inst     54490000                       # number of overall miss cycles
system.cpu.icache.overall_miss_latency::total     54490000                       # number of overall miss cycles
system.cpu.icache.demand_accesses::.cpu.inst     10278981                       # number of demand (read+write) accesses
system.cpu.icache.demand_accesses::total     10278981                       # number of demand (read+write) accesses
system.cpu.icache.overall_accesses::.cpu.inst     10278981                       # number of overall (read+write) accesses
system.cpu.icache.overall_accesses::total     10278981                       # number of overall (read+write) accesses
system.cpu.icache.demand_miss_rate::.cpu.inst     0.000072                       # miss rate for demand accesses
system.cpu.icache.demand_miss_rate::total     0.000072                       # miss rate for demand accesses
system.cpu.icache.overall_miss_rate::.cpu.inst     0.000072                       # miss rate for overall accesses
system.cpu.icache.overall_miss_rate::total     0.000072                       # miss rate for overall accesses
system.cpu.icache.demand_avg_miss_latency::.cpu.inst 73834.688347                       # average overall miss latency
system.cpu.icache.demand_avg_miss_latency::total 73834.688347                       # average overall miss latency
system.cpu.icache.overall_avg_miss_latency::.cpu.inst 73834.688347                       # average overall miss latency
system.cpu.icache.overall_avg_miss_latency::total 73834.688347                       # average overall miss latency
system.cpu.icache.blocked_cycles::no_mshrs            0                       # number of cycles access was blocked
system.cpu.icache.blocked_cycles::no_targets            0                       # number of cycles access was blocked
system.cpu.icache.blocked::no_mshrs                 0                       # number of cycles access was blocked
system.cpu.icache.blocked::no_targets               0                       # number of cycles access was blocked
system.cpu.icache.avg_blocked_cycles::no_mshrs          nan                       # average number of cycles each access was blocked
system.cpu.icache.avg_blocked_cycles::no_targets          nan                       # average number of cycles each access was blocked
system.cpu.icache.writebacks::.writebacks          233                       # number of writebacks
system.cpu.icache.writebacks::total               233                       # number of writebacks
system.cpu.icache.demand_mshr_misses::.cpu.inst          738                       # number of demand (read+write) MSHR misses
system.cpu.icache.demand_mshr_misses::total          738                       # number of demand (read+write) MSHR misses
system.cpu.icache.overall_mshr_misses::.cpu.inst          738                       # number of overall MSHR misses
system.cpu.icache.overall_mshr_misses::total          738                       # number of overall MSHR misses
system.cpu.icache.demand_mshr_miss_latency::.cpu.inst     53752000                       # number of demand (read+write) MSHR miss cycles
system.cpu.icache.demand_mshr_miss_latency::total     53752000                       # number of demand (read+write) MSHR miss cycles
system.cpu.icache.overall_mshr_miss_latency::.cpu.inst     53752000                       # number of overall MSHR miss cycles
system.cpu.icache.overall_mshr_miss_latency::total     53752000                       # number of overall MSHR miss cycles
system.cpu.icache.demand_mshr_miss_rate::.cpu.inst     0.000072                       # mshr miss rate for demand accesses
system.cpu.icache.demand_mshr_miss_rate::total     0.000072                       # mshr miss rate for demand accesses
system.cpu.icache.overall_mshr_miss_rate::.cpu.inst     0.000072                       # mshr miss rate for overall accesses
system.cpu.icache.overall_mshr_miss_rate::total     0.000072                       # mshr miss rate for overall accesses
system.cpu.icache.demand_avg_mshr_miss_latency::.cpu.inst 72834.688347                       # average overall mshr miss latency
system.cpu.icache.demand_avg_mshr_miss_latency::total 72834.688347                       # average overall mshr miss latency
system.cpu.icache.overall_avg_mshr_miss_latency::.cpu.inst 72834.688347                       # average overall mshr miss latency
system.cpu.icache.overall_avg_mshr_miss_latency::total 72834.688347                       # average overall mshr miss latency
system.cpu.icache.replacements                    233                       # number of replacements
system.cpu.icache.ReadReq_hits::.cpu.inst     10278243                       # number of ReadReq hits
system.cpu.icache.ReadReq_hits::total        10278243                       # number of ReadReq hits
system.cpu.icache.ReadReq_misses::.cpu.inst          738                       # number of ReadReq misses
system.cpu.icache.ReadReq_misses::total           738                       # number of ReadReq misses
system.cpu.icache.ReadReq_miss_latency::.cpu.inst     54490000                       # number of ReadReq miss cycles
system.cpu.icache.ReadReq_miss_latency::total     54490000                       # number of ReadReq miss cycles
system.cpu.icache.ReadReq_accesses::.cpu.inst     10278981                       # number of ReadReq accesses(hits+misses)
system.cpu.icache.ReadReq_accesses::total     10278981                       # number of ReadReq accesses(hits+misses)
system.cpu.icache.ReadReq_miss_rate::.cpu.inst     0.000072                       # miss rate for ReadReq accesses
system.cpu.icache.ReadReq_miss_rate::total     0.000072                       # miss rate for ReadReq accesses
system.cpu.icache.ReadReq_avg_miss_latency::.cpu.inst 73834.688347                       # average ReadReq miss latency
system.cpu.icache.ReadReq_avg_miss_latency::total 73834.688347                       # average ReadReq miss latency
system.cpu.icache.ReadReq_mshr_misses::.cpu.inst          738                       # number of ReadReq MSHR misses
system.cpu.icache.ReadReq_mshr_misses::total          738                       # number of ReadReq MSHR misses
system.cpu.icache.ReadReq_mshr_miss_latency::.cpu.inst     53752000                       # number of ReadReq MSHR miss cycles
system.cpu.icache.ReadReq_mshr_miss_latency::total     53752000                       # number of ReadReq MSHR miss cycles
system.cpu.icache.ReadReq_mshr_miss_rate::.cpu.inst     0.000072                       # mshr miss rate for ReadReq accesses
system.cpu.icache.ReadReq_mshr_miss_rate::total     0.000072                       # mshr miss rate for ReadReq accesses
system.cpu.icache.ReadReq_avg_mshr_miss_latency::.cpu.inst 72834.688347                       # average ReadReq mshr miss latency
system.cpu.icache.ReadReq_avg_mshr_miss_latency::total 72834.688347                       # average ReadReq mshr miss latency
system.cpu.icache.power_state.pwrStateResidencyTicks::UNDEFINED  86784575500                       # Cumulative time (in ticks) in various power states
system.cpu.icache.tags.tagsinuse           408.585331                       # Cycle average of tags in use
system.cpu.icache.tags.total_refs            10278981                       # Total number of references to valid blocks.
system.cpu.icache.tags.sampled_refs               738                       # Sample count of references to valid blocks.
system.cpu.icache.tags.avg_refs          13928.158537                       # Average number of references to valid blocks.
system.cpu.icache.tags.warmup_cycle             87500                       # Cycle when the warmup percentage was hit.
system.cpu.icache.tags.occ_blocks::.cpu.inst   408.585331                       # Average occupied blocks per requestor
system.cpu.icache.tags.occ_percent::.cpu.inst     0.399009                       # Average percentage of cache occupancy
system.cpu.icache.tags.occ_percent::total     0.399009                       # Average percentage of cache occupancy
system.cpu.icache.tags.occ_task_id_blocks::1024          505                       # Occupied blocks per task id
system.cpu.icache.tags.age_task_id_blocks_1024::3          107                       # Occupied blocks per task id
system.cpu.icache.tags.age_task_id_blocks_1024::4          398                       # Occupied blocks per task id
system.cpu.icache.tags.occ_task_id_percent::1024     0.493164                       # Percentage of cache occupancy per task id
system.cpu.icache.tags.tag_accesses          10279719                       # Number of tag accesses
system.cpu.icache.tags.data_accesses         10279719                       # Number of data accesses
system.cpu.icache.tags.power_state.pwrStateResidencyTicks::UNDEFINED  86784575500                       # Cumulative time (in ticks) in various power states
system.cpu.itb.instHits                             0                       # ITB inst hits
system.cpu.itb.instMisses                           0                       # ITB inst misses
system.cpu.itb.readHits                             0                       # DTB read hits
system.cpu.itb.readMisses                           0                       # DTB read misses
system.cpu.itb.writeHits                            0                       # DTB write hits
system.cpu.itb.writeMisses                          0                       # DTB write misses
system.cpu.itb.inserts                              0                       # Number of times an entry is inserted into the TLB
system.cpu.itb.flushTlb                             0                       # Number of times complete TLB was flushed
system.cpu.itb.flushTlbMva                          0                       # Number of times TLB was flushed by MVA
system.cpu.itb.flushTlbMvaAsid                      0                       # Number of times TLB was flushed by MVA & ASID
system.cpu.itb.flushTlbAsid                         0                       # Number of times TLB was flushed by ASID
system.cpu.itb.flushedEntries                       0                       # Number of entries that have been flushed from TLB
system.cpu.itb.alignFaults                          0                       # Number of TLB faults due to alignment restrictions
system.cpu.itb.prefetchFaults                       0                       # Number of TLB faults due to prefetch
system.cpu.itb.domainFaults                         0                       # Number of TLB faults due to domain restrictions
system.cpu.itb.permsFaults                          0                       # Number of TLB faults due to permissions restrictions
system.cpu.itb.readAccesses                         0                       # DTB read accesses
system.cpu.itb.writeAccesses                        0                       # DTB write accesses
system.cpu.itb.instAccesses                         0                       # ITB inst accesses
system.cpu.itb.hits                                 0                       # Total TLB (inst and data) hits
system.cpu.itb.misses                               0                       # Total TLB (inst and data) misses
system.cpu.itb.accesses                             0                       # Total TLB (inst and data) accesses
system.cpu.itb.stage2_mmu.stage2_tlb.instHits            0                       # ITB inst hits
system.cpu.itb.stage2_mmu.stage2_tlb.instMisses            0                       # ITB inst misses
system.cpu.itb.stage2_mmu.stage2_tlb.readHits            0                       # DTB read hits
system.cpu.itb.stage2_mmu.stage2_tlb.readMisses            0                       # DTB read misses
system.cpu.itb.stage2_mmu.stage2_tlb.writeHits            0                       # DTB write hits
system.cpu.itb.stage2_mmu.stage2_tlb.writeMisses            0                       # DTB write misses
system.cpu.itb.stage2_mmu.stage2_tlb.inserts            0                       # Number of times an entry is inserted into the TLB
system.cpu.itb.stage2_mmu.stage2_tlb.flushTlb            0                       # Number of times complete TLB was flushed
system.cpu.itb.stage2_mmu.stage2_tlb.flushTlbMva            0                       # Number of times TLB was flushed by MVA
system.cpu.itb.stage2_mmu.stage2_tlb.flushTlbMvaAsid            0                       # Number of times TLB was flushed by MVA & ASID
system.cpu.itb.stage2_mmu.stage2_tlb.flushTlbAsid            0                       # Number of times TLB was flushed by ASID
system.cpu.itb.stage2_mmu.stage2_tlb.flushedEntries            0                       # Number of entries that have been flushed from TLB
system.cpu.itb.stage2_mmu.stage2_tlb.alignFaults            0                       # Number of TLB faults due to alignment restrictions
system.cpu.itb.stage2_mmu.stage2_tlb.prefetchFaults            0                       # Number of TLB faults due to prefetch
system.cpu.itb.stage2_mmu.stage2_tlb.domainFaults            0                       # Number of TLB faults due to domain restrictions
system.cpu.itb.stage2_mmu.stage2_tlb.permsFaults            0                       # Number of TLB faults due to permissions restrictions
system.cpu.itb.stage2_mmu.stage2_tlb.readAccesses            0                       # DTB read accesses
system.cpu.itb.stage2_mmu.stage2_tlb.writeAccesses            0                       # DTB write accesses
system.cpu.itb.stage2_mmu.stage2_tlb.instAccesses            0                       # ITB inst accesses
system.cpu.itb.stage2_mmu.stage2_tlb.hits            0                       # Total TLB (inst and data) hits
system.cpu.itb.stage2_mmu.stage2_tlb.misses            0                       # Total TLB (inst and data) misses
system.cpu.itb.stage2_mmu.stage2_tlb.accesses            0                       # Total TLB (inst and data) accesses
system.cpu.itb.stage2_mmu.stage2_tlb.walker.walks            0                       # Table walker walks requested
system.cpu.itb.stage2_mmu.stage2_tlb.walker.requestOrigin_Requested::Data            0                       # Table walker requests started/completed, data/inst
system.cpu.itb.stage2_mmu.stage2_tlb.walker.requestOrigin_Requested::Inst            0                       # Table walker requests started/completed, data/inst
system.cpu.itb.stage2_mmu.stage2_tlb.walker.requestOrigin_Requested::total            0                       # Table walker requests started/completed, data/inst
system.cpu.itb.stage2_mmu.stage2_tlb.walker.requestOrigin_Completed::Data            0                       # Table walker requests started/completed, data/inst
system.cpu.itb.stage2_mmu.stage2_tlb.walker.requestOrigin_Completed::Inst            0                       # Table walker requests started/completed, data/inst
system.cpu.itb.stage2_mmu.stage2_tlb.walker.requestOrigin_Completed::total            0                       # Table walker requests started/completed, data/inst
system.cpu.itb.stage2_mmu.stage2_tlb.walker.requestOrigin::total            0                       # Table walker requests started/completed, data/inst
system.cpu.itb.stage2_mmu.stage2_tlb.walker.power_state.pwrStateResidencyTicks::UNDEFINED  86784575500                       # Cumulative time (in ticks) in various power states
system.cpu.itb.walker.walks                         0                       # Table walker walks requested
system.cpu.itb.walker.requestOrigin_Requested::Data            0                       # Table walker requests started/completed, data/inst
system.cpu.itb.walker.requestOrigin_Requested::Inst            0                       # Table walker requests started/completed, data/inst
system.cpu.itb.walker.requestOrigin_Requested::total            0                       # Table walker requests started/completed, data/inst
system.cpu.itb.walker.requestOrigin_Completed::Data            0                       # Table walker requests started/completed, data/inst
system.cpu.itb.walker.requestOrigin_Completed::Inst            0                       # Table walker requests started/completed, data/inst
system.cpu.itb.walker.requestOrigin_Completed::total            0                       # Table walker requests started/completed, data/inst
system.cpu.itb.walker.requestOrigin::total            0                       # Table walker requests started/completed, data/inst
system.cpu.itb.walker.power_state.pwrStateResidencyTicks::UNDEFINED  86784575500                       # Cumulative time (in ticks) in various power states
system.cpu.power_state.pwrStateResidencyTicks::ON  86784575500                       # Cumulative time (in ticks) in various power states
system.cpu.thread0.numInsts                 100000001                       # Number of Instructions committed
system.cpu.thread0.numOps                   100196356                       # Number of Ops committed
system.cpu.thread0.numMemRefs                       0                       # Number of Memory References
system.cpu_clk_domain.clock                       500                       # Clock period in ticks
system.cpu_voltage_domain.voltage                   1                       # Voltage in Volts
system.l2.demand_hits::.cpu.inst                   70                       # number of demand (read+write) hits
system.l2.demand_hits::.cpu.data               540268                       # number of demand (read+write) hits
system.l2.demand_hits::total                   540338                       # number of demand (read+write) hits
system.l2.overall_hits::.cpu.inst                  70                       # number of overall hits
system.l2.overall_hits::.cpu.data              540268                       # number of overall hits
system.l2.overall_hits::total                  540338                       # number of overall hits
system.l2.demand_misses::.cpu.inst                668                       # number of demand (read+write) misses
system.l2.demand_misses::.cpu.data             240835                       # number of demand (read+write) misses
system.l2.demand_misses::total                 241503                       # number of demand (read+write) misses
system.l2.overall_misses::.cpu.inst               668                       # number of overall misses
system.l2.overall_misses::.cpu.data            240835                       # number of overall misses
system.l2.overall_misses::total                241503                       # number of overall misses
system.l2.demand_miss_latency::.cpu.inst     51889500                       # number of demand (read+write) miss cycles
system.l2.demand_miss_latency::.cpu.data  20673601500                       # number of demand (read+write) miss cycles
system.l2.demand_miss_latency::total      20725491000                       # number of demand (read+write) miss cycles
system.l2.overall_miss_latency::.cpu.inst     51889500                       # number of overall miss cycles
system.l2.overall_miss_latency::.cpu.data  20673601500                       # number of overall miss cycles
system.l2.overall_miss_latency::total     20725491000                       # number of overall miss cycles
system.l2.demand_accesses::.cpu.inst              738                       # number of demand (read+write) accesses
system.l2.demand_accesses::.cpu.data           781103                       # number of demand (read+write) accesses
system.l2.demand_accesses::total               781841                       # number of demand (read+write) accesses
system.l2.overall_accesses::.cpu.inst             738                       # number of overall (read+write) accesses
system.l2.overall_accesses::.cpu.data          781103                       # number of overall (read+write) accesses
system.l2.overall_accesses::total              781841                       # number of overall (read+write) accesses
system.l2.demand_miss_rate::.cpu.inst        0.905149                       # miss rate for demand accesses
system.l2.demand_miss_rate::.cpu.data        0.308327                       # miss rate for demand accesses
system.l2.demand_miss_rate::total            0.308890                       # miss rate for demand accesses
system.l2.overall_miss_rate::.cpu.inst       0.905149                       # miss rate for overall accesses
system.l2.overall_miss_rate::.cpu.data       0.308327                       # miss rate for overall accesses
system.l2.overall_miss_rate::total           0.308890                       # miss rate for overall accesses
system.l2.demand_avg_miss_latency::.cpu.inst 77678.892216                       # average overall miss latency
system.l2.demand_avg_miss_latency::.cpu.data 85841.349887                       # average overall miss latency
system.l2.demand_avg_miss_latency::total 85818.772438                       # average overall miss latency
system.l2.overall_avg_miss_latency::.cpu.inst 77678.892216                       # average overall miss latency
system.l2.overall_avg_miss_latency::.cpu.data 85841.349887                       # average overall miss latency
system.l2.overall_avg_miss_latency::total 85818.772438                       # average overall miss latency
system.l2.blocked_cycles::no_mshrs                  0                       # number of cycles access was blocked
system.l2.blocked_cycles::no_targets                0                       # number of cycles access was blocked
system.l2.blocked::no_mshrs                         0                       # number of cycles access was blocked
system.l2.blocked::no_targets                       0                       # number of cycles access was blocked
system.l2.avg_blocked_cycles::no_mshrs            nan                       # average number of cycles each access was blocked
system.l2.avg_blocked_cycles::no_targets          nan                       # average number of cycles each access was blocked
system.l2.writebacks::.writebacks              152401                       # number of writebacks
system.l2.writebacks::total                    152401                       # number of writebacks
system.l2.demand_mshr_hits::.cpu.data               6                       # number of demand (read+write) MSHR hits
system.l2.demand_mshr_hits::total                   6                       # number of demand (read+write) MSHR hits
system.l2.overall_mshr_hits::.cpu.data              6                       # number of overall MSHR hits
system.l2.overall_mshr_hits::total                  6                       # number of overall MSHR hits
system.l2.demand_mshr_misses::.cpu.inst           668                       # number of demand (read+write) MSHR misses
system.l2.demand_mshr_misses::.cpu.data        240829                       # number of demand (read+write) MSHR misses
system.l2.demand_mshr_misses::total            241497                       # number of demand (read+write) MSHR misses
system.l2.overall_mshr_misses::.cpu.inst          668                       # number of overall MSHR misses
system.l2.overall_mshr_misses::.cpu.data       240829                       # number of overall MSHR misses
system.l2.overall_mshr_misses::total           241497                       # number of overall MSHR misses
system.l2.demand_mshr_miss_latency::.cpu.inst     45209500                       # number of demand (read+write) MSHR miss cycles
system.l2.demand_mshr_miss_latency::.cpu.data  18264934500                       # number of demand (read+write) MSHR miss cycles
system.l2.demand_mshr_miss_latency::total  18310144000                       # number of demand (read+write) MSHR miss cycles
system.l2.overall_mshr_miss_latency::.cpu.inst     45209500                       # number of overall MSHR miss cycles
system.l2.overall_mshr_miss_latency::.cpu.data  18264934500                       # number of overall MSHR miss cycles
system.l2.overall_mshr_miss_latency::total  18310144000                       # number of overall MSHR miss cycles
system.l2.demand_mshr_miss_rate::.cpu.inst     0.905149                       # mshr miss rate for demand accesses
system.l2.demand_mshr_miss_rate::.cpu.data     0.308319                       # mshr miss rate for demand accesses
system.l2.demand_mshr_miss_rate::total       0.308882                       # mshr miss rate for demand accesses
system.l2.overall_mshr_miss_rate::.cpu.inst     0.905149                       # mshr miss rate for overall accesses
system.l2.overall_mshr_miss_rate::.cpu.data     0.308319                       # mshr miss rate for overall accesses
system.l2.overall_mshr_miss_rate::total      0.308882                       # mshr miss rate for overall accesses
system.l2.demand_avg_mshr_miss_latency::.cpu.inst 67678.892216                       # average overall mshr miss latency
system.l2.demand_avg_mshr_miss_latency::.cpu.data 75841.923107                       # average overall mshr miss latency
system.l2.demand_avg_mshr_miss_latency::total 75819.343512                       # average overall mshr miss latency
system.l2.overall_avg_mshr_miss_latency::.cpu.inst 67678.892216                       # average overall mshr miss latency
system.l2.overall_avg_mshr_miss_latency::.cpu.data 75841.923107                       # average overall mshr miss latency
system.l2.overall_avg_mshr_miss_latency::total 75819.343512                       # average overall mshr miss latency
system.l2.replacements                         226970                       # number of replacements
system.l2.WritebackDirty_hits::.writebacks       685558                       # number of WritebackDirty hits
system.l2.WritebackDirty_hits::total           685558                       # number of WritebackDirty hits
system.l2.WritebackDirty_accesses::.writebacks       685558                       # number of WritebackDirty accesses(hits+misses)
system.l2.WritebackDirty_accesses::total       685558                       # number of WritebackDirty accesses(hits+misses)
system.l2.WritebackClean_hits::.writebacks          221                       # number of WritebackClean hits
system.l2.WritebackClean_hits::total              221                       # number of WritebackClean hits
system.l2.WritebackClean_accesses::.writebacks          221                       # number of WritebackClean accesses(hits+misses)
system.l2.WritebackClean_accesses::total          221                       # number of WritebackClean accesses(hits+misses)
system.l2.CleanEvict_mshr_misses::.writebacks         3706                       # number of CleanEvict MSHR misses
system.l2.CleanEvict_mshr_misses::total          3706                       # number of CleanEvict MSHR misses
system.l2.CleanEvict_mshr_miss_rate::.writebacks          inf                       # mshr miss rate for CleanEvict accesses
system.l2.CleanEvict_mshr_miss_rate::total          inf                       # mshr miss rate for CleanEvict accesses
system.l2.ReadExReq_hits::.cpu.data            170822                       # number of ReadExReq hits
system.l2.ReadExReq_hits::total                170822                       # number of ReadExReq hits
system.l2.ReadExReq_misses::.cpu.data          151403                       # number of ReadExReq misses
system.l2.ReadExReq_misses::total              151403                       # number of ReadExReq misses
system.l2.ReadExReq_miss_latency::.cpu.data  13348944000                       # number of ReadExReq miss cycles
system.l2.ReadExReq_miss_latency::total   13348944000                       # number of ReadExReq miss cycles
system.l2.ReadExReq_accesses::.cpu.data        322225                       # number of ReadExReq accesses(hits+misses)
system.l2.ReadExReq_accesses::total            322225                       # number of ReadExReq accesses(hits+misses)
system.l2.ReadExReq_miss_rate::.cpu.data     0.469867                       # miss rate for ReadExReq accesses
system.l2.ReadExReq_miss_rate::total         0.469867                       # miss rate for ReadExReq accesses
system.l2.ReadExReq_avg_miss_latency::.cpu.data 88168.292570                       # average ReadExReq miss latency
system.l2.ReadExReq_avg_miss_latency::total 88168.292570                       # average ReadExReq miss latency
system.l2.ReadExReq_mshr_misses::.cpu.data       151403                       # number of ReadExReq MSHR misses
system.l2.ReadExReq_mshr_misses::total         151403                       # number of ReadExReq MSHR misses
system.l2.ReadExReq_mshr_miss_latency::.cpu.data  11834914000                       # number of ReadExReq MSHR miss cycles
system.l2.ReadExReq_mshr_miss_latency::total  11834914000                       # number of ReadExReq MSHR miss cycles
system.l2.ReadExReq_mshr_miss_rate::.cpu.data     0.469867                       # mshr miss rate for ReadExReq accesses
system.l2.ReadExReq_mshr_miss_rate::total     0.469867                       # mshr miss rate for ReadExReq accesses
system.l2.ReadExReq_avg_mshr_miss_latency::.cpu.data 78168.292570                       # average ReadExReq mshr miss latency
system.l2.ReadExReq_avg_mshr_miss_latency::total 78168.292570                       # average ReadExReq mshr miss latency
system.l2.ReadCleanReq_hits::.cpu.inst             70                       # number of ReadCleanReq hits
system.l2.ReadCleanReq_hits::total                 70                       # number of ReadCleanReq hits
system.l2.ReadCleanReq_misses::.cpu.inst          668                       # number of ReadCleanReq misses
system.l2.ReadCleanReq_misses::total              668                       # number of ReadCleanReq misses
system.l2.ReadCleanReq_miss_latency::.cpu.inst     51889500                       # number of ReadCleanReq miss cycles
system.l2.ReadCleanReq_miss_latency::total     51889500                       # number of ReadCleanReq miss cycles
system.l2.ReadCleanReq_accesses::.cpu.inst          738                       # number of ReadCleanReq accesses(hits+misses)
system.l2.ReadCleanReq_accesses::total            738                       # number of ReadCleanReq accesses(hits+misses)
system.l2.ReadCleanReq_miss_rate::.cpu.inst     0.905149                       # miss rate for ReadCleanReq accesses
system.l2.ReadCleanReq_miss_rate::total      0.905149                       # miss rate for ReadCleanReq accesses
system.l2.ReadCleanReq_avg_miss_latency::.cpu.inst 77678.892216                       # average ReadCleanReq miss latency
system.l2.ReadCleanReq_avg_miss_latency::total 77678.892216                       # average ReadCleanReq miss latency
system.l2.ReadCleanReq_mshr_misses::.cpu.inst          668                       # number of ReadCleanReq MSHR misses
system.l2.ReadCleanReq_mshr_misses::total          668                       # number of ReadCleanReq MSHR misses
system.l2.ReadCleanReq_mshr_miss_latency::.cpu.inst     45209500                       # number of ReadCleanReq MSHR miss cycles
system.l2.ReadCleanReq_mshr_miss_latency::total     45209500                       # number of ReadCleanReq MSHR miss cycles
system.l2.ReadCleanReq_mshr_miss_rate::.cpu.inst     0.905149                       # mshr miss rate for ReadCleanReq accesses
system.l2.ReadCleanReq_mshr_miss_rate::total     0.905149                       # mshr miss rate for ReadCleanReq accesses
system.l2.ReadCleanReq_avg_mshr_miss_latency::.cpu.inst 67678.892216                       # average ReadCleanReq mshr miss latency
system.l2.ReadCleanReq_avg_mshr_miss_latency::total 67678.892216                       # average ReadCleanReq mshr miss latency
system.l2.ReadSharedReq_hits::.cpu.data        369446                       # number of ReadSharedReq hits
system.l2.ReadSharedReq_hits::total            369446                       # number of ReadSharedReq hits
system.l2.ReadSharedReq_misses::.cpu.data        89432                       # number of ReadSharedReq misses
system.l2.ReadSharedReq_misses::total           89432                       # number of ReadSharedReq misses
system.l2.ReadSharedReq_miss_latency::.cpu.data   7324657500                       # number of ReadSharedReq miss cycles
system.l2.ReadSharedReq_miss_latency::total   7324657500                       # number of ReadSharedReq miss cycles
system.l2.ReadSharedReq_accesses::.cpu.data       458878                       # number of ReadSharedReq accesses(hits+misses)
system.l2.ReadSharedReq_accesses::total        458878                       # number of ReadSharedReq accesses(hits+misses)
system.l2.ReadSharedReq_miss_rate::.cpu.data     0.194893                       # miss rate for ReadSharedReq accesses
system.l2.ReadSharedReq_miss_rate::total     0.194893                       # miss rate for ReadSharedReq accesses
system.l2.ReadSharedReq_avg_miss_latency::.cpu.data 81901.975803                       # average ReadSharedReq miss latency
system.l2.ReadSharedReq_avg_miss_latency::total 81901.975803                       # average ReadSharedReq miss latency
system.l2.ReadSharedReq_mshr_hits::.cpu.data            6                       # number of ReadSharedReq MSHR hits
system.l2.ReadSharedReq_mshr_hits::total            6                       # number of ReadSharedReq MSHR hits
system.l2.ReadSharedReq_mshr_misses::.cpu.data        89426                       # number of ReadSharedReq MSHR misses
system.l2.ReadSharedReq_mshr_misses::total        89426                       # number of ReadSharedReq MSHR misses
system.l2.ReadSharedReq_mshr_miss_latency::.cpu.data   6430020500                       # number of ReadSharedReq MSHR miss cycles
system.l2.ReadSharedReq_mshr_miss_latency::total   6430020500                       # number of ReadSharedReq MSHR miss cycles
system.l2.ReadSharedReq_mshr_miss_rate::.cpu.data     0.194880                       # mshr miss rate for ReadSharedReq accesses
system.l2.ReadSharedReq_mshr_miss_rate::total     0.194880                       # mshr miss rate for ReadSharedReq accesses
system.l2.ReadSharedReq_avg_mshr_miss_latency::.cpu.data 71903.255205                       # average ReadSharedReq mshr miss latency
system.l2.ReadSharedReq_avg_mshr_miss_latency::total 71903.255205                       # average ReadSharedReq mshr miss latency
system.l2.power_state.pwrStateResidencyTicks::UNDEFINED  86784575500                       # Cumulative time (in ticks) in various power states
system.l2.tags.tagsinuse                 16035.615725                       # Cycle average of tags in use
system.l2.tags.total_refs                     1557783                       # Total number of references to valid blocks.
system.l2.tags.sampled_refs                    243354                       # Sample count of references to valid blocks.
system.l2.tags.avg_refs                      6.401304                       # Average number of references to valid blocks.
system.l2.tags.warmup_cycle                     77000                       # Cycle when the warmup percentage was hit.
system.l2.tags.occ_blocks::.writebacks      92.394930                       # Average occupied blocks per requestor
system.l2.tags.occ_blocks::.cpu.inst        23.681333                       # Average occupied blocks per requestor
system.l2.tags.occ_blocks::.cpu.data     15919.539462                       # Average occupied blocks per requestor
system.l2.tags.occ_percent::.writebacks      0.005639                       # Average percentage of cache occupancy
system.l2.tags.occ_percent::.cpu.inst        0.001445                       # Average percentage of cache occupancy
system.l2.tags.occ_percent::.cpu.data        0.971652                       # Average percentage of cache occupancy
system.l2.tags.occ_percent::total            0.978736                       # Average percentage of cache occupancy
system.l2.tags.occ_task_id_blocks::1024         16384                       # Occupied blocks per task id
system.l2.tags.age_task_id_blocks_1024::0           10                       # Occupied blocks per task id
system.l2.tags.age_task_id_blocks_1024::1          276                       # Occupied blocks per task id
system.l2.tags.age_task_id_blocks_1024::2         2582                       # Occupied blocks per task id
system.l2.tags.age_task_id_blocks_1024::3        11054                       # Occupied blocks per task id
system.l2.tags.age_task_id_blocks_1024::4         2462                       # Occupied blocks per task id
system.l2.tags.occ_task_id_percent::1024            1                       # Percentage of cache occupancy per task id
system.l2.tags.tag_accesses                   3366344                       # Number of tag accesses
system.l2.tags.data_accesses                  3366344                       # Number of data accesses
system.l2.tags.power_state.pwrStateResidencyTicks::UNDEFINED  86784575500                       # Cumulative time (in ticks) in various power states
system.mem_ctrls.avgPriority_.writebacks::samples    152382.00                       # Average QoS priority value for accepted requests
system.mem_ctrls.avgPriority_.cpu.inst::samples       668.00                       # Average QoS priority value for accepted requests
system.mem_ctrls.avgPriority_.cpu.data::samples    240372.00                       # Average QoS priority value for accepted requests
system.mem_ctrls.priorityMinLatency      0.000000018750                       # per QoS priority minimum request to response latency (s)
system.mem_ctrls.priorityMaxLatency      0.004800770500                       # per QoS priority maximum request to response latency (s)
system.mem_ctrls.numReadWriteTurnArounds         9045                       # Number of turnarounds from READ to WRITE
system.mem_ctrls.numWriteReadTurnArounds         9045                       # Number of turnarounds from WRITE to READ
system.mem_ctrls.numStayReadState              644766                       # Number of times bus staying in READ state
system.mem_ctrls.numStayWriteState             143481                       # Number of times bus staying in WRITE state
system.mem_ctrls.readReqs                      241497                       # Number of read requests accepted
system.mem_ctrls.writeReqs                     152401                       # Number of write requests accepted
system.mem_ctrls.readBursts                    241497                       # Number of controller read bursts, including those serviced by the write queue
system.mem_ctrls.writeBursts                   152401                       # Number of controller write bursts, including those merged in the write queue
system.mem_ctrls.servicedByWrQ                    457                       # Number of controller read bursts serviced by the write queue
system.mem_ctrls.mergedWrBursts                    19                       # Number of controller write bursts merged with an existing one
system.mem_ctrls.neitherReadNorWriteReqs            0                       # Number of requests that are neither read nor write
system.mem_ctrls.avgRdQLen                       1.09                       # Average read queue length when enqueuing
system.mem_ctrls.avgWrQLen                      24.71                       # Average write queue length when enqueuing
system.mem_ctrls.numRdRetry                         0                       # Number of times read queue was full causing retry
system.mem_ctrls.numWrRetry                         0                       # Number of times write queue was full causing retry
system.mem_ctrls.readPktSize::0                     0                       # Read request sizes (log2)
system.mem_ctrls.readPktSize::1                     0                       # Read request sizes (log2)
system.mem_ctrls.readPktSize::2                     0                       # Read request sizes (log2)
system.mem_ctrls.readPktSize::3                     0                       # Read request sizes (log2)
system.mem_ctrls.readPktSize::4                     0                       # Read request sizes (log2)
system.mem_ctrls.readPktSize::5                     0                       # Read request sizes (log2)
system.mem_ctrls.readPktSize::6                241497                       # Read request sizes (log2)
system.mem_ctrls.writePktSize::0                    0                       # Write request sizes (log2)
system.mem_ctrls.writePktSize::1                    0                       # Write request sizes (log2)
system.mem_ctrls.writePktSize::2                    0                       # Write request sizes (log2)
system.mem_ctrls.writePktSize::3                    0                       # Write request sizes (log2)
system.mem_ctrls.writePktSize::4                    0                       # Write request sizes (log2)
system.mem_ctrls.writePktSize::5                    0                       # Write request sizes (log2)
system.mem_ctrls.writePktSize::6               152401                       # Write request sizes (log2)
system.mem_ctrls.rdQLenPdf::0                  175872                       # What read queue length does an incoming req see
system.mem_ctrls.rdQLenPdf::1                   61973                       # What read queue length does an incoming req see
system.mem_ctrls.rdQLenPdf::2                    2723                       # What read queue length does an incoming req see
system.mem_ctrls.rdQLenPdf::3                     471                       # What read queue length does an incoming req see
system.mem_ctrls.rdQLenPdf::4                       1                       # What read queue length does an incoming req see
system.mem_ctrls.rdQLenPdf::5                       0                       # What read queue length does an incoming req see
system.mem_ctrls.rdQLenPdf::6                       0                       # What read queue length does an incoming req see
system.mem_ctrls.rdQLenPdf::7                       0                       # What read queue length does an incoming req see
[...]
system.mem_ctrls.dram.bw_write::.writebacks    112389373                       # Write bandwidth from this memory (bytes/s)
system.mem_ctrls.dram.bw_write::total       112389373                       # Write bandwidth from this memory (bytes/s)
system.mem_ctrls.dram.bw_total::.writebacks    112389373                       # Total bandwidth to/from this memory (bytes/s)
system.mem_ctrls.dram.bw_total::.cpu.inst       492622                       # Total bandwidth to/from this memory (bytes/s)
system.mem_ctrls.dram.bw_total::.cpu.data    177601330                       # Total bandwidth to/from this memory (bytes/s)
system.mem_ctrls.dram.bw_total::total       290483324                       # Total bandwidth to/from this memory (bytes/s)
system.mem_ctrls.dram.readBursts               241040                       # Number of DRAM read bursts
system.mem_ctrls.dram.writeBursts              152356                       # Number of DRAM write bursts
system.mem_ctrls.dram.perBankRdBursts::0        15072                       # Per bank write bursts
system.mem_ctrls.dram.perBankRdBursts::1        14956                       # Per bank write bursts
system.mem_ctrls.dram.perBankRdBursts::2        14927                       # Per bank write bursts
system.mem_ctrls.dram.perBankRdBursts::3        14713                       # Per bank write bursts
system.mem_ctrls.dram.perBankRdBursts::4        15356                       # Per bank write bursts
system.mem_ctrls.dram.perBankRdBursts::5        14767                       # Per bank write bursts
system.mem_ctrls.dram.perBankRdBursts::6        15145                       # Per bank write bursts
system.mem_ctrls.dram.perBankRdBursts::7        15290                       # Per bank write bursts
system.mem_ctrls.dram.perBankRdBursts::8        15442                       # Per bank write bursts
system.mem_ctrls.dram.perBankRdBursts::9        14634                       # Per bank write bursts
system.mem_ctrls.dram.perBankRdBursts::10        14471                       # Per bank write bursts
system.mem_ctrls.dram.perBankRdBursts::11        15824                       # Per bank write bursts
system.mem_ctrls.dram.perBankRdBursts::12        14935                       # Per bank write bursts
system.mem_ctrls.dram.perBankRdBursts::13        15288                       # Per bank write bursts
system.mem_ctrls.dram.perBankRdBursts::14        15174                       # Per bank write bursts
system.mem_ctrls.dram.perBankRdBursts::15        15046                       # Per bank write bursts
system.mem_ctrls.dram.perBankWrBursts::0         9416                       # Per bank write bursts
system.mem_ctrls.dram.perBankWrBursts::1         9332                       # Per bank write bursts
system.mem_ctrls.dram.perBankWrBursts::2         9283                       # Per bank write bursts
system.mem_ctrls.dram.perBankWrBursts::3         9177                       # Per bank write bursts
system.mem_ctrls.dram.perBankWrBursts::4         9764                       # Per bank write bursts
system.mem_ctrls.dram.perBankWrBursts::5         9409                       # Per bank write bursts
system.mem_ctrls.dram.perBankWrBursts::6         9742                       # Per bank write bursts
system.mem_ctrls.dram.perBankWrBursts::7         9794                       # Per bank write bursts
system.mem_ctrls.dram.perBankWrBursts::8         9921                       # Per bank write bursts
system.mem_ctrls.dram.perBankWrBursts::9         9263                       # Per bank write bursts
system.mem_ctrls.dram.perBankWrBursts::10         8918                       # Per bank write bursts
system.mem_ctrls.dram.perBankWrBursts::11        10334                       # Per bank write bursts
system.mem_ctrls.dram.perBankWrBursts::12         9212                       # Per bank write bursts
system.mem_ctrls.dram.perBankWrBursts::13         9637                       # Per bank write bursts
system.mem_ctrls.dram.perBankWrBursts::14         9610                       # Per bank write bursts
system.mem_ctrls.dram.perBankWrBursts::15         9544                       # Per bank write bursts
system.mem_ctrls.dram.totQLat              3840102250                       # Total ticks spent queuing
system.mem_ctrls.dram.totBusLat            1205200000                       # Total ticks spent in databus transfers
system.mem_ctrls.dram.totMemAccLat         8359602250                       # Total ticks spent from burst creation until serviced by the DRAM
system.mem_ctrls.dram.avgQLat                15931.39                       # Average queueing delay per DRAM burst
system.mem_ctrls.dram.avgBusLat               5000.00                       # Average bus latency per DRAM burst
system.mem_ctrls.dram.avgMemAccLat           34681.39                       # Average memory access latency per DRAM burst
system.mem_ctrls.dram.readRowHits              147685                       # Number of row buffer hits during reads
system.mem_ctrls.dram.writeRowHits              91092                       # Number of row buffer hits during writes
system.mem_ctrls.dram.readRowHitRate            61.27                       # Row buffer hit rate for reads
system.mem_ctrls.dram.writeRowHitRate           59.79                       # Row buffer hit rate for writes
system.mem_ctrls.dram.bytesPerActivate::samples       154619                       # Bytes accessed per row activation
system.mem_ctrls.dram.bytesPerActivate::mean   162.834736                       # Bytes accessed per row activation
system.mem_ctrls.dram.bytesPerActivate::gmean   100.329937                       # Bytes accessed per row activation
system.mem_ctrls.dram.bytesPerActivate::stdev   228.485592                       # Bytes accessed per row activation
system.mem_ctrls.dram.bytesPerActivate::0-127       108967     70.47%     70.47% # Bytes accessed per row activation
system.mem_ctrls.dram.bytesPerActivate::128-255        21363     13.82%     84.29% # Bytes accessed per row activation
system.mem_ctrls.dram.bytesPerActivate::256-383         3795      2.45%     86.75% # Bytes accessed per row activation
system.mem_ctrls.dram.bytesPerActivate::384-511         1939      1.25%     88.00% # Bytes accessed per row activation
system.mem_ctrls.dram.bytesPerActivate::512-639        10407      6.73%     94.73% # Bytes accessed per row activation
system.mem_ctrls.dram.bytesPerActivate::640-767          705      0.46%     95.19% # Bytes accessed per row activation
system.mem_ctrls.dram.bytesPerActivate::768-895          507      0.33%     95.51% # Bytes accessed per row activation
system.mem_ctrls.dram.bytesPerActivate::896-1023          374      0.24%     95.76% # Bytes accessed per row activation
system.mem_ctrls.dram.bytesPerActivate::1024-1151         6562      4.24%    100.00% # Bytes accessed per row activation
system.mem_ctrls.dram.bytesPerActivate::total       154619                       # Bytes accessed per row activation
system.mem_ctrls.dram.bytesRead              15426560                       # Total number of bytes read from DRAM
system.mem_ctrls.dram.bytesWritten            9750784                       # Total number of bytes written to DRAM
system.mem_ctrls.dram.avgRdBW              177.756933                       # Average DRAM read bandwidth in MiBytes/s
system.mem_ctrls.dram.avgWrBW              112.356187                       # Average DRAM write bandwidth in MiBytes/s
system.mem_ctrls.dram.peakBW                 12800.00                       # Theoretical peak bandwidth in MiByte/s
system.mem_ctrls.dram.busUtil                    2.27                       # Data bus utilization in percentage
system.mem_ctrls.dram.busUtilRead                1.39                       # Data bus utilization in percentage for reads
system.mem_ctrls.dram.busUtilWrite               0.88                       # Data bus utilization in percentage for writes
system.mem_ctrls.dram.pageHitRate               60.70                       # Row buffer hit rate, read and write combined
system.mem_ctrls.dram.power_state.pwrStateResidencyTicks::UNDEFINED  86784575500                       # Cumulative time (in ticks) in various power states
system.mem_ctrls.dram.rank0.actEnergy       547223880                       # Energy for activate commands per rank (pJ)
system.mem_ctrls.dram.rank0.preEnergy       290856390                       # Energy for precharge commands per rank (pJ)
system.mem_ctrls.dram.rank0.readEnergy      858413640                       # Energy for read commands per rank (pJ)
system.mem_ctrls.dram.rank0.writeEnergy     396286740                       # Energy for write commands per rank (pJ)
system.mem_ctrls.dram.rank0.refreshEnergy 6850162800.000001                       # Energy for refresh commands per rank (pJ)
system.mem_ctrls.dram.rank0.actBackEnergy  25072384230                       # Energy for active background per rank (pJ)
system.mem_ctrls.dram.rank0.preBackEnergy  12211690560                       # Energy for precharge background per rank (pJ)
system.mem_ctrls.dram.rank0.actPowerDownEnergy            0                       # Energy for active power-down per rank (pJ)
system.mem_ctrls.dram.rank0.prePowerDownEnergy            0                       # Energy for precharge power-down per rank (pJ)
system.mem_ctrls.dram.rank0.selfRefreshEnergy            0                       # Energy for self refresh per rank (pJ)
system.mem_ctrls.dram.rank0.totalEnergy   46227018240                       # Total energy per rank (pJ)
system.mem_ctrls.dram.rank0.averagePower   532.663990                       # Core power per rank (mW)
system.mem_ctrls.dram.rank0.totalIdleTime            0                       # Total Idle time Per DRAM Rank
system.mem_ctrls.dram.rank0.pwrStateTime::IDLE  31487074250                       # Time in different power states
system.mem_ctrls.dram.rank0.pwrStateTime::REF   2897700000                       # Time in different power states
system.mem_ctrls.dram.rank0.pwrStateTime::SREF            0                       # Time in different power states
system.mem_ctrls.dram.rank0.pwrStateTime::PRE_PDN            0                       # Time in different power states
system.mem_ctrls.dram.rank0.pwrStateTime::ACT  52399801250                       # Time in different power states
system.mem_ctrls.dram.rank0.pwrStateTime::ACT_PDN            0                       # Time in different power states
system.mem_ctrls.dram.rank1.actEnergy       556755780                       # Energy for activate commands per rank (pJ)
system.mem_ctrls.dram.rank1.preEnergy       295922715                       # Energy for precharge commands per rank (pJ)
system.mem_ctrls.dram.rank1.readEnergy      862611960                       # Energy for read commands per rank (pJ)
system.mem_ctrls.dram.rank1.writeEnergy     399011580                       # Energy for write commands per rank (pJ)
system.mem_ctrls.dram.rank1.refreshEnergy 6850162800.000001                       # Energy for refresh commands per rank (pJ)
system.mem_ctrls.dram.rank1.actBackEnergy  24685874070                       # Energy for active background per rank (pJ)
system.mem_ctrls.dram.rank1.preBackEnergy  12537172800                       # Energy for precharge background per rank (pJ)
system.mem_ctrls.dram.rank1.actPowerDownEnergy            0                       # Energy for active power-down per rank (pJ)
system.mem_ctrls.dram.rank1.prePowerDownEnergy            0                       # Energy for precharge power-down per rank (pJ)
system.mem_ctrls.dram.rank1.selfRefreshEnergy            0                       # Energy for self refresh per rank (pJ)
system.mem_ctrls.dram.rank1.totalEnergy   46187511705                       # Total energy per rank (pJ)
system.mem_ctrls.dram.rank1.averagePower   532.208765                       # Core power per rank (mW)
system.mem_ctrls.dram.rank1.totalIdleTime            0                       # Total Idle time Per DRAM Rank
system.mem_ctrls.dram.rank1.pwrStateTime::IDLE  32330990750                       # Time in different power states
system.mem_ctrls.dram.rank1.pwrStateTime::REF   2897700000                       # Time in different power states
system.mem_ctrls.dram.rank1.pwrStateTime::SREF            0                       # Time in different power states
system.mem_ctrls.dram.rank1.pwrStateTime::PRE_PDN            0                       # Time in different power states
system.mem_ctrls.dram.rank1.pwrStateTime::ACT  51555884750                       # Time in different power states
system.mem_ctrls.dram.rank1.pwrStateTime::ACT_PDN            0                       # Time in different power states
system.mem_ctrls.power_state.pwrStateResidencyTicks::UNDEFINED  86784575500                       # Cumulative time (in ticks) in various power states
system.membus.trans_dist::ReadResp              90094                       # Transaction distribution
system.membus.trans_dist::WritebackDirty       152401                       # Transaction distribution
system.membus.trans_dist::CleanEvict            72197                       # Transaction distribution
system.membus.trans_dist::ReadExReq            151403                       # Transaction distribution
system.membus.trans_dist::ReadExResp           151403                       # Transaction distribution
system.membus.trans_dist::ReadSharedReq         90094                       # Transaction distribution
system.membus.pkt_count_system.l2.mem_side_port::system.mem_ctrls.port       707592                       # Packet count per connected requestor and responder (bytes)
system.membus.pkt_count::total                 707592                       # Packet count per connected requestor and responder (bytes)
system.membus.pkt_size_system.l2.mem_side_port::system.mem_ctrls.port     25209472                       # Cumulative packet size per connected requestor and responder (bytes)
system.membus.pkt_size::total                25209472                       # Cumulative packet size per connected requestor and responder (bytes)
system.membus.snoops                                0                       # Total snoops (count)
system.membus.snoopTraffic                          0                       # Total snoop traffic (bytes)
system.membus.snoop_fanout::samples            241497                       # Request fanout histogram
system.membus.snoop_fanout::mean                    0                       # Request fanout histogram
system.membus.snoop_fanout::stdev                   0                       # Request fanout histogram
system.membus.snoop_fanout::underflows              0      0.00%      0.00% # Request fanout histogram
system.membus.snoop_fanout::0                  241497    100.00%    100.00% # Request fanout histogram
system.membus.snoop_fanout::1                       0      0.00%    100.00% # Request fanout histogram
system.membus.snoop_fanout::overflows               0      0.00%    100.00% # Request fanout histogram
system.membus.snoop_fanout::min_value               0                       # Request fanout histogram
system.membus.snoop_fanout::max_value               0                       # Request fanout histogram
system.membus.snoop_fanout::total              241497                       # Request fanout histogram
system.membus.power_state.pwrStateResidencyTicks::UNDEFINED  86784575500                       # Cumulative time (in ticks) in various power states
system.membus.reqLayer0.occupancy          1121311000                       # Layer occupancy (ticks)
system.membus.reqLayer0.utilization               1.3                       # Layer utilization (%)
system.membus.respLayer1.occupancy         1305844250                       # Layer occupancy (ticks)
system.membus.respLayer1.utilization              1.5                       # Layer utilization (%)
system.tol2bus.trans_dist::ReadResp            459616                       # Transaction distribution
system.tol2bus.trans_dist::WritebackDirty       837959                       # Transaction distribution
system.tol2bus.trans_dist::WritebackClean          233                       # Transaction distribution
system.tol2bus.trans_dist::CleanEvict          169090                       # Transaction distribution
system.tol2bus.trans_dist::ReadExReq           322225                       # Transaction distribution
system.tol2bus.trans_dist::ReadExResp          322225                       # Transaction distribution
system.tol2bus.trans_dist::ReadCleanReq           738                       # Transaction distribution
system.tol2bus.trans_dist::ReadSharedReq       458878                       # Transaction distribution
system.tol2bus.pkt_count_system.cpu.icache.mem_side_port::system.l2.cpu_side_port         1709                       # Packet count per connected requestor and responder (bytes)
system.tol2bus.pkt_count_system.cpu.dcache.mem_side_port::system.l2.cpu_side_port      2342285                       # Packet count per connected requestor and responder (bytes)
system.tol2bus.pkt_count::total               2343994                       # Packet count per connected requestor and responder (bytes)
system.tol2bus.pkt_size_system.cpu.icache.mem_side_port::system.l2.cpu_side_port        62144                       # Cumulative packet size per connected requestor and responder (bytes)
system.tol2bus.pkt_size_system.cpu.dcache.mem_side_port::system.l2.cpu_side_port     93866304                       # Cumulative packet size per connected requestor and responder (bytes)
system.tol2bus.pkt_size::total               93928448                       # Cumulative packet size per connected requestor and responder (bytes)
system.tol2bus.snoops                          226970                       # Total snoops (count)
system.tol2bus.snoopTraffic                   9753664                       # Total snoop traffic (bytes)
system.tol2bus.snoop_fanout::samples          1008811                       # Request fanout histogram
system.tol2bus.snoop_fanout::mean            0.006687                       # Request fanout histogram
system.tol2bus.snoop_fanout::stdev           0.081598                       # Request fanout histogram
system.tol2bus.snoop_fanout::underflows             0      0.00%      0.00% # Request fanout histogram
system.tol2bus.snoop_fanout::0                1002073     99.33%     99.33% # Request fanout histogram
system.tol2bus.snoop_fanout::1                   6730      0.67%    100.00% # Request fanout histogram
system.tol2bus.snoop_fanout::2                      8      0.00%    100.00% # Request fanout histogram
system.tol2bus.snoop_fanout::overflows              0      0.00%    100.00% # Request fanout histogram
system.tol2bus.snoop_fanout::min_value              0                       # Request fanout histogram
system.tol2bus.snoop_fanout::max_value              2                       # Request fanout histogram
system.tol2bus.snoop_fanout::total            1008811                       # Request fanout histogram
system.tol2bus.power_state.pwrStateResidencyTicks::UNDEFINED  86784575500                       # Cumulative time (in ticks) in various power states
system.tol2bus.reqLayer0.occupancy         1466867500                       # Layer occupancy (ticks)
system.tol2bus.reqLayer0.utilization              1.7                       # Layer utilization (%)
system.tol2bus.respLayer0.occupancy           1107000                       # Layer occupancy (ticks)
system.tol2bus.respLayer0.utilization             0.0                       # Layer utilization (%)
system.tol2bus.respLayer1.occupancy        1171657494                       # Layer occupancy (ticks)
system.tol2bus.respLayer1.utilization             1.4                       # Layer utilization (%)
system.voltage_domain.voltage                       1                       # Voltage in Volts

---------- End Simulation Statistics   ----------
