
---------- Begin Simulation Statistics ----------
final_tick                                80405415000                       # Number of ticks from beginning of simulation (restored from checkpoints and never reset)
host_inst_rate                                 176635                       # Simulator instruction rate (inst/s)
host_mem_usage                                 670984                       # Number of bytes of host memory used
host_op_rate                                   176982                       # Simulator op (including micro ops) rate (op/s)
host_seconds                                   566.14                       # Real time elapsed on the host
host_tick_rate                              142024316                       # Simulator tick rate (ticks/s)
sim_freq                                 1000000000000                       # Frequency of simulated ticks
sim_insts                                   100000001                       # Number of instructions simulated
sim_ops                                     100196356                       # Number of ops (including micro ops) simulated
sim_seconds                                  0.080405                       # Number of seconds simulated
sim_ticks                                 80405415000                       # Number of ticks simulated
system.cpu.committedInsts                   100000001                       # Number of instructions committed
system.cpu.committedOps                     100196356                       # Number of ops (including micro ops) committed
system.cpu.cpi                               1.608108                       # CPI: cycles per instruction
system.cpu.discardedOps                        189321                       # Number of ops (including micro ops) which were discarded before commit
system.cpu.idleCycles                        28387212                       # Total number of cycles that the object has spent stopped
system.cpu.ipc                               0.621849                       # IPC: instructions per cycle
system.cpu.numCycles                        160810830                       # number of cpu cycles simulated
system.cpu.numFetchSuspends                         0                       # Number of times Execute suspended instruction fetching
system.cpu.numWorkItemsCompleted                    0                       # number of work items this cpu completed
system.cpu.numWorkItemsStarted                      0                       # number of work items this cpu started
system.cpu.op_class_0::No_OpClass                   0      0.00%      0.00% # Class of committed instruction
system.cpu.op_class_0::IntAlu                46526863     46.44%     46.44% # Class of committed instruction
system.cpu.op_class_0::IntMult                  20723      0.02%     46.46% # Class of committed instruction
system.cpu.op_class_0::IntDiv                       0      0.00%     46.46% # Class of committed instruction
system.cpu.op_class_0::FloatAdd                     0      0.00%     46.46% # Class of committed instruction
system.cpu.op_class_0::FloatCmp                     0      0.00%     46.46% # Class of committed instruction
system.cpu.op_class_0::FloatCvt                     0      0.00%     46.46% # Class of committed instruction
system.cpu.op_class_0::FloatMult                    0      0.00%     46.46% # Class of committed instruction
system.cpu.op_class_0::FloatMultAcc                 0      0.00%     46.46% # Class of committed instruction
system.cpu.op_class_0::FloatDiv                     0      0.00%     46.46% # Class of committed instruction
system.cpu.op_class_0::FloatMisc                    0      0.00%     46.46% # Class of committed instruction
system.cpu.op_class_0::FloatSqrt                    0      0.00%     46.46% # Class of committed instruction
system.cpu.op_class_0::SimdAdd                      0      0.00%     46.46% # Class of committed instruction
system.cpu.op_class_0::SimdAddAcc                   0      0.00%     46.46% # Class of committed instruction
system.cpu.op_class_0::SimdAlu                      0      0.00%     46.46% # Class of committed instruction
system.cpu.op_class_0::SimdCmp                      0      0.00%     46.46% # Class of committed instruction
system.cpu.op_class_0::SimdCvt                      0      0.00%     46.46% # Class of committed instruction
system.cpu.op_class_0::SimdMisc                     0      0.00%     46.46% # Class of committed instruction
system.cpu.op_class_0::SimdMult                     0      0.00%     46.46% # Class of committed instruction
system.cpu.op_class_0::SimdMultAcc                  0      0.00%     46.46% # Class of committed instruction
system.cpu.op_class_0::SimdShift                    0      0.00%     46.46% # Class of committed instruction
system.cpu.op_class_0::SimdShiftAcc                 0      0.00%     46.46% # Class of committed instruction
system.cpu.op_class_0::SimdDiv                      0      0.00%     46.46% # Class of committed instruction
system.cpu.op_class_0::SimdSqrt                     0      0.00%     46.46% # Class of committed instruction
system.cpu.op_class_0::SimdFloatAdd                 0      0.00%     46.46% # Class of committed instruction
system.cpu.op_class_0::SimdFloatAlu                 0      0.00%     46.46% # Class of committed instruction
system.cpu.op_class_0::SimdFloatCmp                 0      0.00%     46.46% # Class of committed instruction
system.cpu.op_class_0::SimdFloatCvt                 0      0.00%     46.46% # Class of committed instruction
system.cpu.op_class_0::SimdFloatDiv                 0      0.00%     46.46% # Class of committed instruction
system.cpu.op_class_0::SimdFloatMisc               18      0.00%     46.46% # Class of committed instruction
system.cpu.op_class_0::SimdFloatMult                0      0.00%     46.46% # Class of committed instruction
system.cpu.op_class_0::SimdFloatMultAcc             0      0.00%     46.46% # Class of committed instruction
system.cpu.op_class_0::SimdFloatSqrt                0      0.00%     46.46% # Class of committed instruction
system.cpu.op_class_0::SimdReduceAdd                0      0.00%     46.46% # Class of committed instruction
system.cpu.op_class_0::SimdReduceAlu                0      0.00%     46.46% # Class of committed instruction
system.cpu.op_class_0::SimdReduceCmp                0      0.00%     46.46% # Class of committed instruction
system.cpu.op_class_0::SimdFloatReduceAdd            0      0.00%     46.46% # Class of committed instruction
system.cpu.op_class_0::SimdFloatReduceCmp            0      0.00%     46.46% # Class of committed instruction
system.cpu.op_class_0::SimdAes                      0      0.00%     46.46% # Class of committed instruction
system.cpu.op_class_0::SimdAesMix                   0      0.00%     46.46% # Class of committed instruction
system.cpu.op_class_0::SimdSha1Hash                 0      0.00%     46.46% # Class of committed instruction
system.cpu.op_class_0::SimdSha1Hash2                0      0.00%     46.46% # Class of committed instruction
system.cpu.op_class_0::SimdSha256Hash               0      0.00%     46.46% # Class of committed instruction
system.cpu.op_class_0::SimdSha256Hash2              0      0.00%     46.46% # Class of committed instruction
system.cpu.op_class_0::SimdShaSigma2                0      0.00%     46.46% # Class of committed instruction
system.cpu.op_class_0::SimdShaSigma3                0      0.00%     46.46% # Class of committed instruction
system.cpu.op_class_0::SimdPredAlu                  0      0.00%     46.46% # Class of committed instruction
system.cpu.op_class_0::MemRead               42690537     42.61%     89.06% # Class of committed instruction
system.cpu.op_class_0::MemWrite              10958215     10.94%    100.00% # Class of committed instruction
system.cpu.op_class_0::FloatMemRead                 0      0.00%    100.00% # Class of committed instruction
system.cpu.op_class_0::FloatMemWrite                0      0.00%    100.00% # Class of committed instruction
system.cpu.op_class_0::IprAccess                    0      0.00%    100.00% # Class of committed instruction
system.cpu.op_class_0::InstPrefetch                 0      0.00%    100.00% # Class of committed instruction
system.cpu.op_class_0::total                100196356                       # Class of committed instruction
system.cpu.tickCycles                       132423618                       # Number of cycles that the object actually ticked
system.cpu.workload.numSyscalls                    85                       # Number of system calls
system.membus.snoop_filter.hit_multi_requests            0                       # Number of requests hitting in the snoop filter with multiple (>1) holders of the requested data.
system.membus.snoop_filter.hit_multi_snoops            0                       # Number of snoops hitting in the snoop filter with multiple (>1) holders of the requested data.
system.membus.snoop_filter.hit_single_requests       115470                       # Number of requests hitting in the snoop filter with a single holder of the requested data.
system.membus.snoop_filter.hit_single_snoops            0                       # Number of snoops hitting in the snoop filter with a single holder of the requested data.
system.membus.snoop_filter.tot_requests        296849                       # Total number of requests made to the snoop filter.
system.membus.snoop_filter.tot_snoops               0                       # Total number of snoops made to the snoop filter.
system.tol2bus.snoop_filter.hit_multi_requests           61                       # Number of requests hitting in the snoop filter with multiple (>1) holders of the requested data.
system.tol2bus.snoop_filter.hit_multi_snoops            0                       # Number of snoops hitting in the snoop filter with multiple (>1) holders of the requested data.
system.tol2bus.snoop_filter.hit_single_requests       460350                       # Number of requests hitting in the snoop filter with a single holder of the requested data.
system.tol2bus.snoop_filter.hit_single_snoops         1658                       # Number of snoops hitting in the snoop filter with a single holder of the requested data.
system.tol2bus.snoop_filter.tot_requests       923249                       # Total number of requests made to the snoop filter.
system.tol2bus.snoop_filter.tot_snoops           1658                       # Total number of snoops made to the snoop filter.
system.clk_domain.clock                          1000                       # Clock period in ticks
system.cpu.branchPred.lookups                 4485892                       # Number of BP lookups
system.cpu.branchPred.condPredicted           3735600                       # Number of conditional branches predicted
system.cpu.branchPred.condIncorrect             81006                       # Number of conditional branches incorrect
system.cpu.branchPred.BTBLookups              2103762                       # Number of BTB lookups
system.cpu.branchPred.BTBHits                 2101767                       # Number of BTB hits
system.cpu.branchPred.BTBHitPct             99.905170                       # BTB Hit Percentage
system.cpu.branchPred.RASUsed                   65379                       # Number of times the RAS was used to get a target.
system.cpu.branchPred.RASIncorrect                 14                       # Number of incorrect RAS predictions.
system.cpu.branchPred.indirectLookups             693                       # Number of indirect predictor lookups.
system.cpu.branchPred.indirectHits                288                       # Number of indirect target hits.
system.cpu.branchPred.indirectMisses              405                       # Number of indirect misses.
system.cpu.branchPred.indirectMispredicted          171                       # Number of mispredicted indirect branches.
system.cpu.dcache.demand_hits::.cpu.data     51551628                       # number of demand (read+write) hits
system.cpu.dcache.demand_hits::total         51551628                       # number of demand (read+write) hits
system.cpu.dcache.overall_hits::.cpu.data     51552138                       # number of overall hits
system.cpu.dcache.overall_hits::total        51552138                       # number of overall hits
system.cpu.dcache.demand_misses::.cpu.data       516300                       # number of demand (read+write) misses
system.cpu.dcache.demand_misses::total         516300                       # number of demand (read+write) misses
system.cpu.dcache.overall_misses::.cpu.data       524209                       # number of overall misses
system.cpu.dcache.overall_misses::total        524209                       # number of overall misses
system.cpu.dcache.demand_miss_latency::.cpu.data  19994205000                       # number of demand (read+write) miss cycles
system.cpu.dcache.demand_miss_latency::total  19994205000                       # number of demand (read+write) miss cycles
system.cpu.dcache.overall_miss_latency::.cpu.data  19994205000                       # number of overall miss cycles
system.cpu.dcache.overall_miss_latency::total  19994205000                       # number of overall miss cycles
system.cpu.dcache.demand_accesses::.cpu.data     52067928                       # number of demand (read+write) accesses
system.cpu.dcache.demand_accesses::total     52067928                       # number of demand (read+write) accesses
system.cpu.dcache.overall_accesses::.cpu.data     52076347                       # number of overall (read+write) accesses
system.cpu.dcache.overall_accesses::total     52076347                       # number of overall (read+write) accesses
system.cpu.dcache.demand_miss_rate::.cpu.data     0.009916                       # miss rate for demand accesses
system.cpu.dcache.demand_miss_rate::total     0.009916                       # miss rate for demand accesses
system.cpu.dcache.overall_miss_rate::.cpu.data     0.010066                       # miss rate for overall accesses
system.cpu.dcache.overall_miss_rate::total     0.010066                       # miss rate for overall accesses
system.cpu.dcache.demand_avg_miss_latency::.cpu.data 38725.944218                       # average overall miss latency
system.cpu.dcache.demand_avg_miss_latency::total 38725.944218                       # average overall miss latency
system.cpu.dcache.overall_avg_miss_latency::.cpu.data 38141.666778                       # average overall miss latency
system.cpu.dcache.overall_avg_miss_latency::total 38141.666778                       # average overall miss latency
system.cpu.dcache.blocked_cycles::no_mshrs       220901                       # number of cycles access was blocked
system.cpu.dcache.blocked_cycles::no_targets            0                       # number of cycles access was blocked
system.cpu.dcache.blocked::no_mshrs              3163                       # number of cycles access was blocked
system.cpu.dcache.blocked::no_targets               0                       # number of cycles access was blocked
system.cpu.dcache.avg_blocked_cycles::no_mshrs    69.839077                       # average number of cycles each access was blocked
system.cpu.dcache.avg_blocked_cycles::no_targets          nan                       # average number of cycles each access was blocked
system.cpu.dcache.writebacks::.writebacks       404815                       # number of writebacks
system.cpu.dcache.writebacks::total            404815                       # number of writebacks
system.cpu.dcache.demand_mshr_hits::.cpu.data        62042                       # number of demand (read+write) MSHR hits
system.cpu.dcache.demand_mshr_hits::total        62042                       # number of demand (read+write) MSHR hits
system.cpu.dcache.overall_mshr_hits::.cpu.data        62042                       # number of overall MSHR hits
system.cpu.dcache.overall_mshr_hits::total        62042                       # number of overall MSHR hits
system.cpu.dcache.demand_mshr_misses::.cpu.data       454258                       # number of demand (read+write) MSHR misses
system.cpu.dcache.demand_mshr_misses::total       454258                       # number of demand (read+write) MSHR misses
system.cpu.dcache.overall_mshr_misses::.cpu.data       462163                       # number of overall MSHR misses
system.cpu.dcache.overall_mshr_misses::total       462163                       # number of overall MSHR misses
system.cpu.dcache.demand_mshr_miss_latency::.cpu.data  17917719000                       # number of demand (read+write) MSHR miss cycles
system.cpu.dcache.demand_mshr_miss_latency::total  17917719000                       # number of demand (read+write) MSHR miss cycles
system.cpu.dcache.overall_mshr_miss_latency::.cpu.data  18595975999                       # number of overall MSHR miss cycles
system.cpu.dcache.overall_mshr_miss_latency::total  18595975999                       # number of overall MSHR miss cycles
system.cpu.dcache.demand_mshr_miss_rate::.cpu.data     0.008724                       # mshr miss rate for demand accesses
system.cpu.dcache.demand_mshr_miss_rate::total     0.008724                       # mshr miss rate for demand accesses
system.cpu.dcache.overall_mshr_miss_rate::.cpu.data     0.008875                       # mshr miss rate for overall accesses
system.cpu.dcache.overall_mshr_miss_rate::total     0.008875                       # mshr miss rate for overall accesses
system.cpu.dcache.demand_avg_mshr_miss_latency::.cpu.data 39443.926139                       # average overall mshr miss latency
system.cpu.dcache.demand_avg_mshr_miss_latency::total 39443.926139                       # average overall mshr miss latency
system.cpu.dcache.overall_avg_mshr_miss_latency::.cpu.data 40236.834188                       # average overall mshr miss latency
system.cpu.dcache.overall_avg_mshr_miss_latency::total 40236.834188                       # average overall mshr miss latency
system.cpu.dcache.replacements                 460115                       # number of replacements
system.cpu.dcache.ReadReq_hits::.cpu.data     40888620                       # number of ReadReq hits
system.cpu.dcache.ReadReq_hits::total        40888620                       # number of ReadReq hits
system.cpu.dcache.ReadReq_misses::.cpu.data       230226                       # number of ReadReq misses
system.cpu.dcache.ReadReq_misses::total        230226                       # number of ReadReq misses
system.cpu.dcache.ReadReq_miss_latency::.cpu.data   5934044000                       # number of ReadReq miss cycles
system.cpu.dcache.ReadReq_miss_latency::total   5934044000                       # number of ReadReq miss cycles
system.cpu.dcache.ReadReq_accesses::.cpu.data     41118846                       # number of ReadReq accesses(hits+misses)
system.cpu.dcache.ReadReq_accesses::total     41118846                       # number of ReadReq accesses(hits+misses)
system.cpu.dcache.ReadReq_miss_rate::.cpu.data     0.005599                       # miss rate for ReadReq accesses
system.cpu.dcache.ReadReq_miss_rate::total     0.005599                       # miss rate for ReadReq accesses
system.cpu.dcache.ReadReq_avg_miss_latency::.cpu.data 25774.864698                       # average ReadReq miss latency
system.cpu.dcache.ReadReq_avg_miss_latency::total 25774.864698                       # average ReadReq miss latency
system.cpu.dcache.ReadReq_mshr_hits::.cpu.data          295                       # number of ReadReq MSHR hits
system.cpu.dcache.ReadReq_mshr_hits::total          295                       # number of ReadReq MSHR hits
system.cpu.dcache.ReadReq_mshr_misses::.cpu.data       229931                       # number of ReadReq MSHR misses
system.cpu.dcache.ReadReq_mshr_misses::total       229931                       # number of ReadReq MSHR misses
system.cpu.dcache.ReadReq_mshr_miss_latency::.cpu.data   5692173500                       # number of ReadReq MSHR miss cycles
system.cpu.dcache.ReadReq_mshr_miss_latency::total   5692173500                       # number of ReadReq MSHR miss cycles
system.cpu.dcache.ReadReq_mshr_miss_rate::.cpu.data     0.005592                       # mshr miss rate for ReadReq accesses
system.cpu.dcache.ReadReq_mshr_miss_rate::total     0.005592                       # mshr miss rate for ReadReq accesses
system.cpu.dcache.ReadReq_avg_mshr_miss_latency::.cpu.data 24756.007237                       # average ReadReq mshr miss latency
system.cpu.dcache.ReadReq_avg_mshr_miss_latency::total 24756.007237                       # average ReadReq mshr miss latency
system.cpu.dcache.WriteReq_hits::.cpu.data     10663008                       # number of WriteReq hits
system.cpu.dcache.WriteReq_hits::total       10663008                       # number of WriteReq hits
system.cpu.dcache.WriteReq_misses::.cpu.data       286074                       # number of WriteReq misses
system.cpu.dcache.WriteReq_misses::total       286074                       # number of WriteReq misses
system.cpu.dcache.WriteReq_miss_latency::.cpu.data  14060161000                       # number of WriteReq miss cycles
system.cpu.dcache.WriteReq_miss_latency::total  14060161000                       # number of WriteReq miss cycles
system.cpu.dcache.WriteReq_accesses::.cpu.data     10949082                       # number of WriteReq accesses(hits+misses)
system.cpu.dcache.WriteReq_accesses::total     10949082                       # number of WriteReq accesses(hits+misses)
system.cpu.dcache.WriteReq_miss_rate::.cpu.data     0.026128                       # miss rate for WriteReq accesses
system.cpu.dcache.WriteReq_miss_rate::total     0.026128                       # miss rate for WriteReq accesses
system.cpu.dcache.WriteReq_avg_miss_latency::.cpu.data 49148.685305                       # average WriteReq miss latency
system.cpu.dcache.WriteReq_avg_miss_latency::total 49148.685305                       # average WriteReq miss latency
system.cpu.dcache.WriteReq_mshr_hits::.cpu.data        61747                       # number of WriteReq MSHR hits
system.cpu.dcache.WriteReq_mshr_hits::total        61747                       # number of WriteReq MSHR hits
system.cpu.dcache.WriteReq_mshr_misses::.cpu.data       224327                       # number of WriteReq MSHR misses
system.cpu.dcache.WriteReq_mshr_misses::total       224327                       # number of WriteReq MSHR misses
system.cpu.dcache.WriteReq_mshr_miss_latency::.cpu.data  12225545500                       # number of WriteReq MSHR miss cycles
system.cpu.dcache.WriteReq_mshr_miss_latency::total  12225545500                       # number of WriteReq MSHR miss cycles
system.cpu.dcache.WriteReq_mshr_miss_rate::.cpu.data     0.020488                       # mshr miss rate for WriteReq accesses
system.cpu.dcache.WriteReq_mshr_miss_rate::total     0.020488                       # mshr miss rate for WriteReq accesses
system.cpu.dcache.WriteReq_avg_mshr_miss_latency::.cpu.data 54498.769653                       # average WriteReq mshr miss latency
system.cpu.dcache.WriteReq_avg_mshr_miss_latency::total 54498.769653                       # average WriteReq mshr miss latency
system.cpu.dcache.SoftPFReq_hits::.cpu.data          510                       # number of SoftPFReq hits
system.cpu.dcache.SoftPFReq_hits::total           510                       # number of SoftPFReq hits
system.cpu.dcache.SoftPFReq_misses::.cpu.data         7909                       # number of SoftPFReq misses
system.cpu.dcache.SoftPFReq_misses::total         7909                       # number of SoftPFReq misses
system.cpu.dcache.SoftPFReq_accesses::.cpu.data         8419                       # number of SoftPFReq accesses(hits+misses)
system.cpu.dcache.SoftPFReq_accesses::total         8419                       # number of SoftPFReq accesses(hits+misses)
system.cpu.dcache.SoftPFReq_miss_rate::.cpu.data     0.939423                       # miss rate for SoftPFReq accesses
system.cpu.dcache.SoftPFReq_miss_rate::total     0.939423                       # miss rate for SoftPFReq accesses
system.cpu.dcache.SoftPFReq_mshr_misses::.cpu.data         7905                       # number of SoftPFReq MSHR misses
system.cpu.dcache.SoftPFReq_mshr_misses::total         7905                       # number of SoftPFReq MSHR misses
system.cpu.dcache.SoftPFReq_mshr_miss_latency::.cpu.data    678256999                       # number of SoftPFReq MSHR miss cycles
system.cpu.dcache.SoftPFReq_mshr_miss_latency::total    678256999                       # number of SoftPFReq MSHR miss cycles
system.cpu.dcache.SoftPFReq_mshr_miss_rate::.cpu.data     0.938948                       # mshr miss rate for SoftPFReq accesses
system.cpu.dcache.SoftPFReq_mshr_miss_rate::total     0.938948                       # mshr miss rate for SoftPFReq accesses
system.cpu.dcache.SoftPFReq_avg_mshr_miss_latency::.cpu.data 85801.011891                       # average SoftPFReq mshr miss latency
system.cpu.dcache.SoftPFReq_avg_mshr_miss_latency::total 85801.011891                       # average SoftPFReq mshr miss latency
system.cpu.dcache.LoadLockedReq_hits::.cpu.data           38                       # number of LoadLockedReq hits
system.cpu.dcache.LoadLockedReq_hits::total           38                       # number of LoadLockedReq hits
system.cpu.dcache.LoadLockedReq_accesses::.cpu.data           38                       # number of LoadLockedReq accesses(hits+misses)
system.cpu.dcache.LoadLockedReq_accesses::total           38                       # number of LoadLockedReq accesses(hits+misses)
system.cpu.dcache.StoreCondReq_hits::.cpu.data           38                       # number of StoreCondReq hits
system.cpu.dcache.StoreCondReq_hits::total           38                       # number of StoreCondReq hits
system.cpu.dcache.StoreCondReq_accesses::.cpu.data           38                       # number of StoreCondReq accesses(hits+misses)
system.cpu.dcache.StoreCondReq_accesses::total           38                       # number of StoreCondReq accesses(hits+misses)
system.cpu.dcache.power_state.pwrStateResidencyTicks::UNDEFINED  80405415000                       # Cumulative time (in ticks) in various power states
system.cpu.dcache.tags.tagsinuse          2010.980175                       # Cycle average of tags in use
system.cpu.dcache.tags.total_refs            52014377                       # Total number of references to valid blocks.
system.cpu.dcache.tags.sampled_refs            462163                       # Sample count of references to valid blocks.
system.cpu.dcache.tags.avg_refs            112.545524                       # Average number of references to valid blocks.
system.cpu.dcache.tags.warmup_cycle            176500                       # Cycle when the warmup percentage was hit.
system.cpu.dcache.tags.occ_blocks::.cpu.data  2010.980175                       # Average occupied blocks per requestor
system.cpu.dcache.tags.occ_percent::.cpu.data     0.981924                       # Average percentage of cache occupancy
system.cpu.dcache.tags.occ_percent::total     0.981924                       # Average percentage of cache occupancy
system.cpu.dcache.tags.occ_task_id_blocks::1024         2048                       # Occupied blocks per task id
system.cpu.dcache.tags.age_task_id_blocks_1024::0          148                       # Occupied blocks per task id
system.cpu.dcache.tags.age_task_id_blocks_1024::1          714                       # Occupied blocks per task id
system.cpu.dcache.tags.age_task_id_blocks_1024::2         1162                       # Occupied blocks per task id
system.cpu.dcache.tags.age_task_id_blocks_1024::3           22                       # Occupied blocks per task id
system.cpu.dcache.tags.age_task_id_blocks_1024::4            2                       # Occupied blocks per task id
system.cpu.dcache.tags.occ_task_id_percent::1024            1                       # Percentage of cache occupancy per task id
system.cpu.dcache.tags.tag_accesses        1666907699                       # Number of tag accesses
system.cpu.dcache.tags.data_accesses       1666907699                       # Number of data accesses
system.cpu.dcache.tags.power_state.pwrStateResidencyTicks::UNDEFINED  80405415000                       # Cumulative time (in ticks) in various power states
system.cpu.dtb.instHits                             0                       # ITB inst hits
system.cpu.dtb.instMisses                           0                       # ITB inst misses
system.cpu.dtb.readHits                             0                       # DTB read hits
system.cpu.dtb.readMisses                           0                       # DTB read misses
system.cpu.dtb.writeHits                            0                       # DTB write hits
system.cpu.dtb.writeMisses                          0                       # DTB write misses
system.cpu.dtb.inserts                              0                       # Number of times an entry is inserted into the TLB
system.cpu.dtb.flushTlb                             0                       # Number of times complete TLB was flushed
system.cpu.dtb.flushTlbMva                          0                       # Number of times TLB was flushed by MVA
system.cpu.dtb.flushTlbMvaAsid                      0                       # Number of times TLB was flushed by MVA & ASID
system.cpu.dtb.flushTlbAsid                         0                       # Number of times TLB was flushed by ASID
system.cpu.dtb.flushedEntries                       0                       # Number of entries that have been flushed from TLB
system.cpu.dtb.alignFaults                          0                       # Number of TLB faults due to alignment restrictions
system.cpu.dtb.prefetchFaults                       0                       # Number of TLB faults due to prefetch
system.cpu.dtb.domainFaults                         0                       # Number of TLB faults due to domain restrictions
system.cpu.dtb.permsFaults                          0                       # Number of TLB faults due to permissions restrictions
system.cpu.dtb.readAccesses                         0                       # DTB read accesses
system.cpu.dtb.writeAccesses                        0                       # DTB write accesses
system.cpu.dtb.instAccesses                         0                       # ITB inst accesses
system.cpu.dtb.hits                                 0                       # Total TLB (inst and data) hits
system.cpu.dtb.misses                               0                       # Total TLB (inst and data) misses
system.cpu.dtb.accesses                             0                       # Total TLB (inst and data) accesses
system.cpu.dtb.stage2_mmu.stage2_tlb.instHits            0                       # ITB inst hits
system.cpu.dtb.stage2_mmu.stage2_tlb.instMisses            0                       # ITB inst misses
system.cpu.dtb.stage2_mmu.stage2_tlb.readHits            0                       # DTB read hits
system.cpu.dtb.stage2_mmu.stage2_tlb.readMisses            0                       # DTB read misses
system.cpu.dtb.stage2_mmu.stage2_tlb.writeHits            0                       # DTB write hits
system.cpu.dtb.stage2_mmu.stage2_tlb.writeMisses            0                       # DTB write misses
system.cpu.dtb.stage2_mmu.stage2_tlb.inserts            0                       # Number of times an entry is inserted into the TLB
system.cpu.dtb.stage2_mmu.stage2_tlb.flushTlb            0                       # Number of times complete TLB was flushed
system.cpu.dtb.stage2_mmu.stage2_tlb.flushTlbMva            0                       # Number of times TLB was flushed by MVA
system.cpu.dtb.stage2_mmu.stage2_tlb.flushTlbMvaAsid            0                       # Number of times TLB was flushed by MVA & ASID
system.cpu.dtb.stage2_mmu.stage2_tlb.flushTlbAsid            0                       # Number of times TLB was flushed by ASID
system.cpu.dtb.stage2_mmu.stage2_tlb.flushedEntries            0                       # Number of entries that have been flushed from TLB
system.cpu.dtb.stage2_mmu.stage2_tlb.alignFaults            0                       # Number of TLB faults due to alignment restrictions
system.cpu.dtb.stage2_mmu.stage2_tlb.prefetchFaults            0                       # Number of TLB faults due to prefetch
system.cpu.dtb.stage2_mmu.stage2_tlb.domainFaults            0                       # Number of TLB faults due to domain restrictions
system.cpu.dtb.stage2_mmu.stage2_tlb.permsFaults            0                       # Number of TLB faults due to permissions restrictions
system.cpu.dtb.stage2_mmu.stage2_tlb.readAccesses            0                       # DTB read accesses
system.cpu.dtb.stage2_mmu.stage2_tlb.writeAccesses            0                       # DTB write accesses
system.cpu.dtb.stage2_mmu.stage2_tlb.instAccesses            0                       # ITB inst accesses
system.cpu.dtb.stage2_mmu.stage2_tlb.hits            0                       # Total TLB (inst and data) hits
system.cpu.dtb.stage2_mmu.stage2_tlb.misses            0                       # Total TLB (inst and data) misses
system.cpu.dtb.stage2_mmu.stage2_tlb.accesses            0                       # Total TLB (inst and data) accesses
system.cpu.dtb.stage2_mmu.stage2_tlb.walker.walks            0                       # Table walker walks requested
system.cpu.dtb.stage2_mmu.stage2_tlb.walker.requestOrigin_Requested::Data            0                       # Table walker requests started/completed, data/inst
system.cpu.dtb.stage2_mmu.stage2_tlb.walker.requestOrigin_Requested::Inst            0                       # Table walker requests started/completed, data/inst
system.cpu.dtb.stage2_mmu.stage2_tlb.walker.requestOrigin_Requested::total            0                       # Table walker requests started/completed, data/inst
system.cpu.dtb.stage2_mmu.stage2_tlb.walker.requestOrigin_Completed::Data            0                       # Table walker requests started/completed, data/inst
system.cpu.dtb.stage2_mmu.stage2_tlb.walker.requestOrigin_Completed::Inst            0                       # Table walker requests started/completed, data/inst
system.cpu.dtb.stage2_mmu.stage2_tlb.walker.requestOrigin_Completed::total            0                       # Table walker requests started/completed, data/inst
system.cpu.dtb.stage2_mmu.stage2_tlb.walker.requestOrigin::total            0                       # Table walker requests started/completed, data/inst
system.cpu.dtb.stage2_mmu.stage2_tlb.walker.power_state.pwrStateResidencyTicks::UNDEFINED  80405415000                       # Cumulative time (in ticks) in various power states
system.cpu.dtb.walker.walks                         0                       # Table walker walks requested
system.cpu.dtb.walker.requestOrigin_Requested::Data            0                       # Table walker requests started/completed, data/inst
system.cpu.dtb.walker.requestOrigin_Requested::Inst            0                       # Table walker requests started/completed, data/inst
system.cpu.dtb.walker.requestOrigin_Requested::total            0                       # Table walker requests started/completed, data/inst
system.cpu.dtb.walker.requestOrigin_Completed::Data            0                       # Table walker requests started/completed, data/inst
system.cpu.dtb.walker.requestOrigin_Completed::Inst            0                       # Table walker requests started/completed, data/inst
system.cpu.dtb.walker.requestOrigin_Completed::total            0                       # Table walker requests started/completed, data/inst
system.cpu.dtb.walker.requestOrigin::total            0                       # Table walker requests started/completed, data/inst
system.cpu.dtb.walker.power_state.pwrStateResidencyTicks::UNDEFINED  80405415000                       # Cumulative time (in ticks) in various power states
system.cpu.fetch2.intInstructions            42685762                       # Number of integer instructions successfully decoded
system.cpu.fetch2.fpInstructions                    0                       # Number of floating point instructions successfully decoded
system.cpu.fetch2.vecInstructions                   0                       # Number of SIMD instructions successfully decoded
system.cpu.fetch2.loadInstructions           43474830                       # Number of memory load instructions successfully decoded
system.cpu.fetch2.storeInstructions          11024762                       # Number of memory store instructions successfully decoded
system.cpu.fetch2.amoInstructions                   0                       # Number of memory atomic instructions successfully decoded
system.cpu.icache.demand_hits::.cpu.inst     10277630                       # number of demand (read+write) hits
system.cpu.icache.demand_hits::total         10277630                       # number of demand (read+write) hits
system.cpu.icache.overall_hits::.cpu.inst     10277630                       # number of overall hits
system.cpu.icache.overall_hits::total        10277630                       # number of overall hits
system.cpu.icache.demand_misses::.cpu.inst          738                       # number of demand (read+write) misses
system.cpu.icache.demand_misses::total            738                       # number of demand (read+write) misses
system.cpu.icache.overall_misses::.cpu.inst          738                       # number of overall misses
system.cpu.icache.overall_misses::total           738                       # number of overall misses
system.cpu.icache.demand_miss_latency::.cpu.inst     54803000                       # number of demand (read+write) miss cycles
system.cpu.icache.demand_miss_latency::total     54803000                       # number of demand (read+write) miss cycles
system.cpu.icache.overall_miss_latency::.cpu.inst     54803000                       # number of overall miss cycles
system.cpu.icache.overall_miss_latency::total     54803000                       # number of overall miss cycles
system.cpu.icache.demand_accesses::.cpu.inst     10278368                       # number of demand (read+write) accesses
system.cpu.icache.demand_accesses::total     10278368                       # number of demand (read+write) accesses
system.cpu.icache.overall_accesses::.cpu.inst     10278368                       # number of overall (read+write) accesses
system.cpu.icache.overall_accesses::total     10278368                       # number of overall (read+write) accesses
system.cpu.icache.demand_miss_rate::.cpu.inst     0.000072                       # miss rate for demand accesses
system.cpu.icache.demand_miss_rate::total     0.000072                       # miss rate for demand accesses
system.cpu.icache.overall_miss_rate::.cpu.inst     0.000072                       # miss rate for overall accesses
system.cpu.icache.overall_miss_rate::total     0.000072                       # miss rate for overall accesses
system.cpu.icache.demand_avg_miss_latency::.cpu.inst 74258.807588                       # average overall miss latency
system.cpu.icache.demand_avg_miss_latency::total 74258.807588                       # average overall miss latency
system.cpu.icache.overall_avg_miss_latency::.cpu.inst 74258.807588                       # average overall miss latency
system.cpu.icache.overall_avg_miss_latency::total 74258.807588                       # average overall miss latency
system.cpu.icache.blocked_cycles::no_mshrs            0                       # number of cycles access was blocked
system.cpu.icache.blocked_cycles::no_targets            0                       # number of cycles access was blocked
system.cpu.icache.blocked::no_mshrs                 0                       # number of cycles access was blocked
system.cpu.icache.blocked::no_targets               0                       # number of cycles access was blocked
system.cpu.icache.avg_blocked_cycles::no_mshrs          nan                       # average number of cycles each access was blocked
system.cpu.icache.avg_blocked_cycles::no_targets          nan                       # average number of cycles each access was blocked
system.cpu.icache.writebacks::.writebacks          233                       # number of writebacks
system.cpu.icache.writebacks::total               233                       # number of writebacks
system.cpu.icache.demand_mshr_misses::.cpu.inst          738                       # number of demand (read+write) MSHR misses
system.cpu.icache.demand_mshr_misses::total          738                       # number of demand (read+write) MSHR misses
system.cpu.icache.overall_mshr_misses::.cpu.inst          738                       # number of overall MSHR misses
system.cpu.icache.overall_mshr_misses::total          738                       # number of overall MSHR misses
system.cpu.icache.demand_mshr_miss_latency::.cpu.inst     54065000                       # number of demand (read+write) MSHR miss cycles
system.cpu.icache.demand_mshr_miss_latency::total     54065000                       # number of demand (read+write) MSHR miss cycles
system.cpu.icache.overall_mshr_miss_latency::.cpu.inst     54065000                       # number of overall MSHR miss cycles
system.cpu.icache.overall_mshr_miss_latency::total     54065000                       # number of overall MSHR miss cycles
system.cpu.icache.demand_mshr_miss_rate::.cpu.inst     0.000072                       # mshr miss rate for demand accesses
system.cpu.icache.demand_mshr_miss_rate::total     0.000072                       # mshr miss rate for demand accesses
system.cpu.icache.overall_mshr_miss_rate::.cpu.inst     0.000072                       # mshr miss rate for overall accesses
system.cpu.icache.overall_mshr_miss_rate::total     0.000072                       # mshr miss rate for overall accesses
system.cpu.icache.demand_avg_mshr_miss_latency::.cpu.inst 73258.807588                       # average overall mshr miss latency
system.cpu.icache.demand_avg_mshr_miss_latency::total 73258.807588                       # average overall mshr miss latency
system.cpu.icache.overall_avg_mshr_miss_latency::.cpu.inst 73258.807588                       # average overall mshr miss latency
system.cpu.icache.overall_avg_mshr_miss_latency::total 73258.807588                       # average overall mshr miss latency
system.cpu.icache.replacements                    233                       # number of replacements
system.cpu.icache.ReadReq_hits::.cpu.inst     10277630                       # number of ReadReq hits
system.cpu.icache.ReadReq_hits::total        10277630                       # number of ReadReq hits
system.cpu.icache.ReadReq_misses::.cpu.inst          738                       # number of ReadReq misses
system.cpu.icache.ReadReq_misses::total           738                       # number of ReadReq misses
system.cpu.icache.ReadReq_miss_latency::.cpu.inst     54803000                       # number of ReadReq miss cycles
system.cpu.icache.ReadReq_miss_latency::total     54803000                       # number of ReadReq miss cycles
system.cpu.icache.ReadReq_accesses::.cpu.inst     10278368                       # number of ReadReq accesses(hits+misses)
system.cpu.icache.ReadReq_accesses::total     10278368                       # number of ReadReq accesses(hits+misses)
system.cpu.icache.ReadReq_miss_rate::.cpu.inst     0.000072                       # miss rate for ReadReq accesses
system.cpu.icache.ReadReq_miss_rate::total     0.000072                       # miss rate for ReadReq accesses
system.cpu.icache.ReadReq_avg_miss_latency::.cpu.inst 74258.807588                       # average ReadReq miss latency
system.cpu.icache.ReadReq_avg_miss_latency::total 74258.807588                       # average ReadReq miss latency
system.cpu.icache.ReadReq_mshr_misses::.cpu.inst          738                       # number of ReadReq MSHR misses
system.cpu.icache.ReadReq_mshr_misses::total          738                       # number of ReadReq MSHR misses
system.cpu.icache.ReadReq_mshr_miss_latency::.cpu.inst     54065000                       # number of ReadReq MSHR miss cycles
system.cpu.icache.ReadReq_mshr_miss_latency::total     54065000                       # number of ReadReq MSHR miss cycles
system.cpu.icache.ReadReq_mshr_miss_rate::.cpu.inst     0.000072                       # mshr miss rate for ReadReq accesses
system.cpu.icache.ReadReq_mshr_miss_rate::total     0.000072                       # mshr miss rate for ReadReq accesses
system.cpu.icache.ReadReq_avg_mshr_miss_latency::.cpu.inst 73258.807588                       # average ReadReq mshr miss latency
system.cpu.icache.ReadReq_avg_mshr_miss_latency::total 73258.807588                       # average ReadReq mshr miss latency
system.cpu.icache.power_state.pwrStateResidencyTicks::UNDEFINED  80405415000                       # Cumulative time (in ticks) in various power states
system.cpu.icache.tags.tagsinuse           406.678782                       # Cycle average of tags in use
system.cpu.icache.tags.total_refs            10278368                       # Total number of references to valid blocks.
system.cpu.icache.tags.sampled_refs               738                       # Sample count of references to valid blocks.
system.cpu.icache.tags.avg_refs          13927.327913                       # Average number of references to valid blocks.
system.cpu.icache.tags.warmup_cycle             87500                       # Cycle when the warmup percentage was hit.
system.cpu.icache.tags.occ_blocks::.cpu.inst   406.678782                       # Average occupied blocks per requestor
system.cpu.icache.tags.occ_percent::.cpu.inst     0.397147                       # Average percentage of cache occupancy
system.cpu.icache.tags.occ_percent::total     0.397147                       # Average percentage of cache occupancy
system.cpu.icache.tags.occ_task_id_blocks::1024          505                       # Occupied blocks per task id
system.cpu.icache.tags.age_task_id_blocks_1024::3          107                       # Occupied blocks per task id
system.cpu.icache.tags.age_task_id_blocks_1024::4          398                       # Occupied blocks per task id
system.cpu.icache.tags.occ_task_id_percent::1024     0.493164                       # Percentage of cache occupancy per task id
system.cpu.icache.tags.tag_accesses          10279106                       # Number of tag accesses
system.cpu.icache.tags.data_accesses         10279106                       # Number of data accesses
system.cpu.icache.tags.power_state.pwrStateResidencyTicks::UNDEFINED  80405415000                       # Cumulative time (in ticks) in various power states
system.cpu.itb.instHits                             0                       # ITB inst hits
system.cpu.itb.instMisses                           0                       # ITB inst misses
system.cpu.itb.readHits                             0                       # DTB read hits
system.cpu.itb.readMisses                           0                       # DTB read misses
system.cpu.itb.writeHits                            0                       # DTB write hits
system.cpu.itb.writeMisses                          0                       # DTB write misses
system.cpu.itb.inserts                              0                       # Number of times an entry is inserted into the TLB
system.cpu.itb.flushTlb                             0                       # Number of times complete TLB was flushed
system.cpu.itb.flushTlbMva                          0                       # Number of times TLB was flushed by MVA
system.cpu.itb.flushTlbMvaAsid                      0                       # Number of times TLB was flushed by MVA & ASID
system.cpu.itb.flushTlbAsid                         0                       # Number of times TLB was flushed by ASID
system.cpu.itb.flushedEntries                       0                       # Number of entries that have been flushed from TLB
system.cpu.itb.alignFaults                          0                       # Number of TLB faults due to alignment restrictions
system.cpu.itb.prefetchFaults                       0                       # Number of TLB faults due to prefetch
system.cpu.itb.domainFaults                         0                       # Number of TLB faults due to domain restrictions
system.cpu.itb.permsFaults                          0                       # Number of TLB faults due to permissions restrictions
system.cpu.itb.readAccesses                         0                       # DTB read accesses
system.cpu.itb.writeAccesses                        0                       # DTB write accesses
system.cpu.itb.instAccesses                         0                       # ITB inst accesses
system.cpu.itb.hits                                 0                       # Total TLB (inst and data) hits
system.cpu.itb.misses                               0                       # Total TLB (inst and data) misses
system.cpu.itb.accesses                             0                       # Total TLB (inst and data) accesses
system.cpu.itb.stage2_mmu.stage2_tlb.instHits            0                       # ITB inst hits
system.cpu.itb.stage2_mmu.stage2_tlb.instMisses            0                       # ITB inst misses
system.cpu.itb.stage2_mmu.stage2_tlb.readHits            0                       # DTB read hits
system.cpu.itb.stage2_mmu.stage2_tlb.readMisses            0                       # DTB read misses
system.cpu.itb.stage2_mmu.stage2_tlb.writeHits            0                       # DTB write hits
system.cpu.itb.stage2_mmu.stage2_tlb.writeMisses            0                       # DTB write misses
system.cpu.itb.stage2_mmu.stage2_tlb.inserts            0                       # Number of times an entry is inserted into the TLB
system.cpu.itb.stage2_mmu.stage2_tlb.flushTlb            0                       # Number of times complete TLB was flushed
system.cpu.itb.stage2_mmu.stage2_tlb.flushTlbMva            0                       # Number of times TLB was flushed by MVA
system.cpu.itb.stage2_mmu.stage2_tlb.flushTlbMvaAsid            0                       # Number of times TLB was flushed by MVA & ASID
system.cpu.itb.stage2_mmu.stage2_tlb.flushTlbAsid            0                       # Number of times TLB was flushed by ASID
system.cpu.itb.stage2_mmu.stage2_tlb.flushedEntries            0                       # Number of entries that have been flushed from TLB
system.cpu.itb.stage2_mmu.stage2_tlb.alignFaults            0                       # Number of TLB faults due to alignment restrictions
system.cpu.itb.stage2_mmu.stage2_tlb.prefetchFaults            0                       # Number of TLB faults due to prefetch
system.cpu.itb.stage2_mmu.stage2_tlb.domainFaults            0                       # Number of TLB faults due to domain restrictions
system.cpu.itb.stage2_mmu.stage2_tlb.permsFaults            0                       # Number of TLB faults due to permissions restrictions
system.cpu.itb.stage2_mmu.stage2_tlb.readAccesses            0                       # DTB read accesses
system.cpu.itb.stage2_mmu.stage2_tlb.writeAccesses            0                       # DTB write accesses
system.cpu.itb.stage2_mmu.stage2_tlb.instAccesses            0                       # ITB inst accesses
system.cpu.itb.stage2_mmu.stage2_tlb.hits            0                       # Total TLB (inst and data) hits
system.cpu.itb.stage2_mmu.stage2_tlb.misses            0                       # Total TLB (inst and data) misses
system.cpu.itb.stage2_mmu.stage2_tlb.accesses            0                       # Total TLB (inst and data) accesses
system.cpu.itb.stage2_mmu.stage2_tlb.walker.walks            0                       # Table walker walks requested
system.cpu.itb.stage2_mmu.stage2_tlb.walker.requestOrigin_Requested::Data            0                       # Table walker requests started/completed, data/inst
system.cpu.itb.stage2_mmu.stage2_tlb.walker.requestOrigin_Requested::Inst            0                       # Table walker requests started/completed, data/inst
system.cpu.itb.stage2_mmu.stage2_tlb.walker.requestOrigin_Requested::total            0                       # Table walker requests started/completed, data/inst
system.cpu.itb.stage2_mmu.stage2_tlb.walker.requestOrigin_Completed::Data            0                       # Table walker requests started/completed, data/inst
system.cpu.itb.stage2_mmu.stage2_tlb.walker.requestOrigin_Completed::Inst            0                       # Table walker requests started/completed, data/inst
system.cpu.itb.stage2_mmu.stage2_tlb.walker.requestOrigin_Completed::total            0                       # Table walker requests started/completed, data/inst
system.cpu.itb.stage2_mmu.stage2_tlb.walker.requestOrigin::total            0                       # Table walker requests started/completed, data/inst
system.cpu.itb.stage2_mmu.stage2_tlb.walker.power_state.pwrStateResidencyTicks::UNDEFINED  80405415000                       # Cumulative time (in ticks) in various power states
system.cpu.itb.walker.walks                         0                       # Table walker walks requested
system.cpu.itb.walker.requestOrigin_Requested::Data            0                       # Table walker requests started/completed, data/inst
system.cpu.itb.walker.requestOrigin_Requested::Inst            0                       # Table walker requests started/completed, data/inst
system.cpu.itb.walker.requestOrigin_Requested::total            0                       # Table walker requests started/completed, data/inst
system.cpu.itb.walker.requestOrigin_Completed::Data            0                       # Table walker requests started/completed, data/inst
system.cpu.itb.walker.requestOrigin_Completed::Inst            0                       # Table walker requests started/completed, data/inst
system.cpu.itb.walker.requestOrigin_Completed::total            0                       # Table walker requests started/completed, data/inst
system.cpu.itb.walker.requestOrigin::total            0                       # Table walker requests started/completed, data/inst
system.cpu.itb.walker.power_state.pwrStateResidencyTicks::UNDEFINED  80405415000                       # Cumulative time (in ticks) in various power states
system.cpu.power_state.pwrStateResidencyTicks::ON  80405415000                       # Cumulative time (in ticks) in various power states
system.cpu.thread0.numInsts                 100000001                       # Number of Instructions committed
system.cpu.thread0.numOps                   100196356                       # Number of Ops committed
system.cpu.thread0.numMemRefs                       0                       # Number of Memory References
system.cpu_clk_domain.clock                       500                       # Clock period in ticks
system.cpu_voltage_domain.voltage                   1                       # Voltage in Volts
system.l2.demand_hits::.cpu.inst                   72                       # number of demand (read+write) hits
system.l2.demand_hits::.cpu.data               281439                       # number of demand (read+write) hits
system.l2.demand_hits::total                   281511                       # number of demand (read+write) hits
system.l2.overall_hits::.cpu.inst                  72                       # number of overall hits
system.l2.overall_hits::.cpu.data              281439                       # number of overall hits
system.l2.overall_hits::total                  281511                       # number of overall hits
system.l2.demand_misses::.cpu.inst                666                       # number of demand (read+write) misses
system.l2.demand_misses::.cpu.data             180724                       # number of demand (read+write) misses
system.l2.demand_misses::total                 181390                       # number of demand (read+write) misses
system.l2.overall_misses::.cpu.inst               666                       # number of overall misses
system.l2.overall_misses::.cpu.data            180724                       # number of overall misses
system.l2.overall_misses::total                181390                       # number of overall misses
system.l2.demand_miss_latency::.cpu.inst     52181500                       # number of demand (read+write) miss cycles
system.l2.demand_miss_latency::.cpu.data  14946522000                       # number of demand (read+write) miss cycles
system.l2.demand_miss_latency::total      14998703500                       # number of demand (read+write) miss cycles
system.l2.overall_miss_latency::.cpu.inst     52181500                       # number of overall miss cycles
system.l2.overall_miss_latency::.cpu.data  14946522000                       # number of overall miss cycles
system.l2.overall_miss_latency::total     14998703500                       # number of overall miss cycles
system.l2.demand_accesses::.cpu.inst              738                       # number of demand (read+write) accesses
system.l2.demand_accesses::.cpu.data           462163                       # number of demand (read+write) accesses
system.l2.demand_accesses::total               462901                       # number of demand (read+write) accesses
system.l2.overall_accesses::.cpu.inst             738                       # number of overall (read+write) accesses
system.l2.overall_accesses::.cpu.data          462163                       # number of overall (read+write) accesses
system.l2.overall_accesses::total              462901                       # number of overall (read+write) accesses
system.l2.demand_miss_rate::.cpu.inst        0.902439                       # miss rate for demand accesses
system.l2.demand_miss_rate::.cpu.data        0.391040                       # miss rate for demand accesses
system.l2.demand_miss_rate::total            0.391855                       # miss rate for demand accesses
system.l2.overall_miss_rate::.cpu.inst       0.902439                       # miss rate for overall accesses
system.l2.overall_miss_rate::.cpu.data       0.391040                       # miss rate for overall accesses
system.l2.overall_miss_rate::total           0.391855                       # miss rate for overall accesses
system.l2.demand_avg_miss_latency::.cpu.inst 78350.600601                       # average overall miss latency
system.l2.demand_avg_miss_latency::.cpu.data 82703.581151                       # average overall miss latency
system.l2.demand_avg_miss_latency::total 82687.598545                       # average overall miss latency
system.l2.overall_avg_miss_latency::.cpu.inst 78350.600601                       # average overall miss latency
system.l2.overall_avg_miss_latency::.cpu.data 82703.581151                       # average overall miss latency
system.l2.overall_avg_miss_latency::total 82687.598545                       # average overall miss latency
system.l2.blocked_cycles::no_mshrs                  0                       # number of cycles access was blocked
system.l2.blocked_cycles::no_targets                0                       # number of cycles access was blocked
system.l2.blocked::no_mshrs                         0                       # number of cycles access was blocked
system.l2.blocked::no_targets                       0                       # number of cycles access was blocked
system.l2.avg_blocked_cycles::no_mshrs            nan                       # average number of cycles each access was blocked
system.l2.avg_blocked_cycles::no_targets          nan                       # average number of cycles each access was blocked
system.l2.writebacks::.writebacks               63505                       # number of writebacks
system.l2.writebacks::total                     63505                       # number of writebacks
system.l2.demand_mshr_hits::.cpu.data               6                       # number of demand (read+write) MSHR hits
system.l2.demand_mshr_hits::total                   6                       # number of demand (read+write) MSHR hits
system.l2.overall_mshr_hits::.cpu.data              6                       # number of overall MSHR hits
system.l2.overall_mshr_hits::total                  6                       # number of overall MSHR hits
system.l2.demand_mshr_misses::.cpu.inst           666                       # number of demand (read+write) MSHR misses
system.l2.demand_mshr_misses::.cpu.data        180718                       # number of demand (read+write) MSHR misses
system.l2.demand_mshr_misses::total            181384                       # number of demand (read+write) MSHR misses
system.l2.overall_mshr_misses::.cpu.inst          666                       # number of overall MSHR misses
system.l2.overall_mshr_misses::.cpu.data       180718                       # number of overall MSHR misses
system.l2.overall_mshr_misses::total           181384                       # number of overall MSHR misses
system.l2.demand_mshr_miss_latency::.cpu.inst     45521500                       # number of demand (read+write) MSHR miss cycles
system.l2.demand_mshr_miss_latency::.cpu.data  13138964500                       # number of demand (read+write) MSHR miss cycles
system.l2.demand_mshr_miss_latency::total  13184486000                       # number of demand (read+write) MSHR miss cycles
system.l2.overall_mshr_miss_latency::.cpu.inst     45521500                       # number of overall MSHR miss cycles
system.l2.overall_mshr_miss_latency::.cpu.data  13138964500                       # number of overall MSHR miss cycles
system.l2.overall_mshr_miss_latency::total  13184486000                       # number of overall MSHR miss cycles
system.l2.demand_mshr_miss_rate::.cpu.inst     0.902439                       # mshr miss rate for demand accesses
system.l2.demand_mshr_miss_rate::.cpu.data     0.391027                       # mshr miss rate for demand accesses
system.l2.demand_mshr_miss_rate::total       0.391842                       # mshr miss rate for demand accesses
system.l2.overall_mshr_miss_rate::.cpu.inst     0.902439                       # mshr miss rate for overall accesses
system.l2.overall_mshr_miss_rate::.cpu.data     0.391027                       # mshr miss rate for overall accesses
system.l2.overall_mshr_miss_rate::total      0.391842                       # mshr miss rate for overall accesses
system.l2.demand_avg_mshr_miss_latency::.cpu.inst 68350.600601                       # average overall mshr miss latency
system.l2.demand_avg_mshr_miss_latency::.cpu.data 72704.238095                       # average overall mshr miss latency
system.l2.demand_avg_mshr_miss_latency::total 72688.252547                       # average overall mshr miss latency
system.l2.overall_avg_mshr_miss_latency::.cpu.inst 68350.600601                       # average overall mshr miss latency
system.l2.overall_avg_mshr_miss_latency::.cpu.data 72704.238095                       # average overall mshr miss latency
system.l2.overall_avg_mshr_miss_latency::total 72688.252547                       # average overall mshr miss latency
system.l2.replacements                         115926                       # number of replacements
system.l2.WritebackDirty_hits::.writebacks       404815                       # number of WritebackDirty hits
system.l2.WritebackDirty_hits::total           404815                       # number of WritebackDirty hits
system.l2.WritebackDirty_accesses::.writebacks       404815                       # number of WritebackDirty accesses(hits+misses)
system.l2.WritebackDirty_accesses::total       404815                       # number of WritebackDirty accesses(hits+misses)
system.l2.WritebackClean_hits::.writebacks          221                       # number of WritebackClean hits
system.l2.WritebackClean_hits::total              221                       # number of WritebackClean hits
system.l2.WritebackClean_accesses::.writebacks          221                       # number of WritebackClean accesses(hits+misses)
system.l2.WritebackClean_accesses::total          221                       # number of WritebackClean accesses(hits+misses)
system.l2.CleanEvict_mshr_misses::.writebacks         1197                       # number of CleanEvict MSHR misses
system.l2.CleanEvict_mshr_misses::total          1197                       # number of CleanEvict MSHR misses
system.l2.CleanEvict_mshr_miss_rate::.writebacks          inf                       # mshr miss rate for CleanEvict accesses
system.l2.CleanEvict_mshr_miss_rate::total          inf                       # mshr miss rate for CleanEvict accesses
system.l2.ReadExReq_hits::.cpu.data             96612                       # number of ReadExReq hits
system.l2.ReadExReq_hits::total                 96612                       # number of ReadExReq hits
system.l2.ReadExReq_misses::.cpu.data          127715                       # number of ReadExReq misses
system.l2.ReadExReq_misses::total              127715                       # number of ReadExReq misses
system.l2.ReadExReq_miss_latency::.cpu.data  10874060500                       # number of ReadExReq miss cycles
system.l2.ReadExReq_miss_latency::total   10874060500                       # number of ReadExReq miss cycles
system.l2.ReadExReq_accesses::.cpu.data        224327                       # number of ReadExReq accesses(hits+misses)
system.l2.ReadExReq_accesses::total            224327                       # number of ReadExReq accesses(hits+misses)
system.l2.ReadExReq_miss_rate::.cpu.data     0.569325                       # miss rate for ReadExReq accesses
system.l2.ReadExReq_miss_rate::total         0.569325                       # miss rate for ReadExReq accesses
system.l2.ReadExReq_avg_miss_latency::.cpu.data 85143.174255                       # average ReadExReq miss latency
system.l2.ReadExReq_avg_miss_latency::total 85143.174255                       # average ReadExReq miss latency
system.l2.ReadExReq_mshr_misses::.cpu.data       127715                       # number of ReadExReq MSHR misses
system.l2.ReadExReq_mshr_misses::total         127715                       # number of ReadExReq MSHR misses
system.l2.ReadExReq_mshr_miss_latency::.cpu.data   9596910500                       # number of ReadExReq MSHR miss cycles
system.l2.ReadExReq_mshr_miss_latency::total   9596910500                       # number of ReadExReq MSHR miss cycles
system.l2.ReadExReq_mshr_miss_rate::.cpu.data     0.569325                       # mshr miss rate for ReadExReq accesses
system.l2.ReadExReq_mshr_miss_rate::total     0.569325                       # mshr miss rate for ReadExReq accesses
system.l2.ReadExReq_avg_mshr_miss_latency::.cpu.data 75143.174255                       # average ReadExReq mshr miss latency
system.l2.ReadExReq_avg_mshr_miss_latency::total 75143.174255                       # average ReadExReq mshr miss latency
system.l2.ReadCleanReq_hits::.cpu.inst             72                       # number of ReadCleanReq hits
system.l2.ReadCleanReq_hits::total                 72                       # number of ReadCleanReq hits
system.l2.ReadCleanReq_misses::.cpu.inst          666                       # number of ReadCleanReq misses
system.l2.ReadCleanReq_misses::total              666                       # number of ReadCleanReq misses
system.l2.ReadCleanReq_miss_latency::.cpu.inst     52181500                       # number of ReadCleanReq miss cycles
system.l2.ReadCleanReq_miss_latency::total     52181500                       # number of ReadCleanReq miss cycles
system.l2.ReadCleanReq_accesses::.cpu.inst          738                       # number of ReadCleanReq accesses(hits+misses)
system.l2.ReadCleanReq_accesses::total            738                       # number of ReadCleanReq accesses(hits+misses)
system.l2.ReadCleanReq_miss_rate::.cpu.inst     0.902439                       # miss rate for ReadCleanReq accesses
system.l2.ReadCleanReq_miss_rate::total      0.902439                       # miss rate for ReadCleanReq accesses
system.l2.ReadCleanReq_avg_miss_latency::.cpu.inst 78350.600601                       # average ReadCleanReq miss latency
system.l2.ReadCleanReq_avg_miss_latency::total 78350.600601                       # average ReadCleanReq miss latency
system.l2.ReadCleanReq_mshr_misses::.cpu.inst          666                       # number of ReadCleanReq MSHR misses
system.l2.ReadCleanReq_mshr_misses::total          666                       # number of ReadCleanReq MSHR misses
system.l2.ReadCleanReq_mshr_miss_latency::.cpu.inst     45521500                       # number of ReadCleanReq MSHR miss cycles
system.l2.ReadCleanReq_mshr_miss_latency::total     45521500                       # number of ReadCleanReq MSHR miss cycles
system.l2.ReadCleanReq_mshr_miss_rate::.cpu.inst     0.902439                       # mshr miss rate for ReadCleanReq accesses
system.l2.ReadCleanReq_mshr_miss_rate::total     0.902439                       # mshr miss rate for ReadCleanReq accesses
system.l2.ReadCleanReq_avg_mshr_miss_latency::.cpu.inst 68350.600601                       # average ReadCleanReq mshr miss latency
system.l2.ReadCleanReq_avg_mshr_miss_latency::total 68350.600601                       # average ReadCleanReq mshr miss latency
system.l2.ReadSharedReq_hits::.cpu.data        184827                       # number of ReadSharedReq hits
system.l2.ReadSharedReq_hits::total            184827                       # number of ReadSharedReq hits
system.l2.ReadSharedReq_misses::.cpu.data        53009                       # number of ReadSharedReq misses
system.l2.ReadSharedReq_misses::total           53009                       # number of ReadSharedReq misses
system.l2.ReadSharedReq_miss_latency::.cpu.data   4072461500                       # number of ReadSharedReq miss cycles
system.l2.ReadSharedReq_miss_latency::total   4072461500                       # number of ReadSharedReq miss cycles
system.l2.ReadSharedReq_accesses::.cpu.data       237836                       # number of ReadSharedReq accesses(hits+misses)
system.l2.ReadSharedReq_accesses::total        237836                       # number of ReadSharedReq accesses(hits+misses)
system.l2.ReadSharedReq_miss_rate::.cpu.data     0.222880                       # miss rate for ReadSharedReq accesses
system.l2.ReadSharedReq_miss_rate::total     0.222880                       # miss rate for ReadSharedReq accesses
system.l2.ReadSharedReq_avg_miss_latency::.cpu.data 76825.850327                       # average ReadSharedReq miss latency
system.l2.ReadSharedReq_avg_miss_latency::total 76825.850327                       # average ReadSharedReq miss latency
system.l2.ReadSharedReq_mshr_hits::.cpu.data            6                       # number of ReadSharedReq MSHR hits
system.l2.ReadSharedReq_mshr_hits::total            6                       # number of ReadSharedReq MSHR hits
system.l2.ReadSharedReq_mshr_misses::.cpu.data        53003                       # number of ReadSharedReq MSHR misses
system.l2.ReadSharedReq_mshr_misses::total        53003                       # number of ReadSharedReq MSHR misses
system.l2.ReadSharedReq_mshr_miss_latency::.cpu.data   3542054000                       # number of ReadSharedReq MSHR miss cycles
system.l2.ReadSharedReq_mshr_miss_latency::total   3542054000                       # number of ReadSharedReq MSHR miss cycles
system.l2.ReadSharedReq_mshr_miss_rate::.cpu.data     0.222855                       # mshr miss rate for ReadSharedReq accesses
system.l2.ReadSharedReq_mshr_miss_rate::total     0.222855                       # mshr miss rate for ReadSharedReq accesses
system.l2.ReadSharedReq_avg_mshr_miss_latency::.cpu.data 66827.424863                       # average ReadSharedReq mshr miss latency
system.l2.ReadSharedReq_avg_mshr_miss_latency::total 66827.424863                       # average ReadSharedReq mshr miss latency
system.l2.power_state.pwrStateResidencyTicks::UNDEFINED  80405415000                       # Cumulative time (in ticks) in various power states
system.l2.tags.tagsinuse                 63107.719797                       # Cycle average of tags in use
system.l2.tags.total_refs                      921985                       # Total number of references to valid blocks.
system.l2.tags.sampled_refs                    181462                       # Sample count of references to valid blocks.
system.l2.tags.avg_refs                      5.080871                       # Average number of references to valid blocks.
system.l2.tags.warmup_cycle                     77000                       # Cycle when the warmup percentage was hit.
system.l2.tags.occ_blocks::.writebacks      41.298328                       # Average occupied blocks per requestor
system.l2.tags.occ_blocks::.cpu.inst       124.090539                       # Average occupied blocks per requestor
system.l2.tags.occ_blocks::.cpu.data     62942.330930                       # Average occupied blocks per requestor
system.l2.tags.occ_percent::.writebacks      0.000630                       # Average percentage of cache occupancy
system.l2.tags.occ_percent::.cpu.inst        0.001893                       # Average percentage of cache occupancy
system.l2.tags.occ_percent::.cpu.data        0.960424                       # Average percentage of cache occupancy
system.l2.tags.occ_percent::total            0.962947                       # Average percentage of cache occupancy
system.l2.tags.occ_task_id_blocks::1024         65536                       # Occupied blocks per task id
system.l2.tags.age_task_id_blocks_1024::1            5                       # Occupied blocks per task id
system.l2.tags.age_task_id_blocks_1024::2            7                       # Occupied blocks per task id
system.l2.tags.age_task_id_blocks_1024::3         5847                       # Occupied blocks per task id
system.l2.tags.age_task_id_blocks_1024::4        59677                       # Occupied blocks per task id
system.l2.tags.occ_task_id_percent::1024            1                       # Percentage of cache occupancy per task id
system.l2.tags.tag_accesses                   3874214                       # Number of tag accesses
system.l2.tags.data_accesses                  3874214                       # Number of data accesses
system.l2.tags.power_state.pwrStateResidencyTicks::UNDEFINED  80405415000                       # Cumulative time (in ticks) in various power states
system.mem_ctrls.avgPriority_.writebacks::samples     63505.00                       # Average QoS priority value for accepted requests
system.mem_ctrls.avgPriority_.cpu.inst::samples       666.00                       # Average QoS priority value for accepted requests
system.mem_ctrls.avgPriority_.cpu.data::samples    180703.00                       # Average QoS priority value for accepted requests
system.mem_ctrls.priorityMinLatency      0.000000018750                       # per QoS priority minimum request to response latency (s)
system.mem_ctrls.priorityMaxLatency      0.008425692750                       # per QoS priority maximum request to response latency (s)
system.mem_ctrls.numReadWriteTurnArounds         3824                       # Number of turnarounds from READ to WRITE
system.mem_ctrls.numWriteReadTurnArounds         3824                       # Number of turnarounds from WRITE to READ
system.mem_ctrls.numStayReadState              440829                       # Number of times bus staying in READ state
system.mem_ctrls.numStayWriteState              59710                       # Number of times bus staying in WRITE state
system.mem_ctrls.readReqs                      181384                       # Number of read requests accepted
system.mem_ctrls.writeReqs                      63505                       # Number of write requests accepted
system.mem_ctrls.readBursts                    181384                       # Number of controller read bursts, including those serviced by the write queue
system.mem_ctrls.writeBursts                    63505                       # Number of controller write bursts, including those merged in the write queue
system.mem_ctrls.servicedByWrQ                     15                       # Number of controller read bursts serviced by the write queue
system.mem_ctrls.mergedWrBursts                     0                       # Number of controller write bursts merged with an existing one
system.mem_ctrls.neitherReadNorWriteReqs            0                       # Number of requests that are neither read nor write
system.mem_ctrls.avgRdQLen                       1.08                       # Average read queue length when enqueuing
system.mem_ctrls.avgWrQLen                      24.52                       # Average write queue length when enqueuing
system.mem_ctrls.numRdRetry                         0                       # Number of times read queue was full causing retry
system.mem_ctrls.numWrRetry                         0                       # Number of times write queue was full causing retry
system.mem_ctrls.readPktSize::0                     0                       # Read request sizes (log2)
system.mem_ctrls.readPktSize::1                     0                       # Read request sizes (log2)
system.mem_ctrls.readPktSize::2                     0                       # Read request sizes (log2)
system.mem_ctrls.readPktSize::3                     0                       # Read request sizes (log2)
system.mem_ctrls.readPktSize::4                     0                       # Read request sizes (log2)
system.mem_ctrls.readPktSize::5                     0                       # Read request sizes (log2)
system.mem_ctrls.readPktSize::6                181384                       # Read request sizes (log2)
system.mem_ctrls.writePktSize::0                    0                       # Write request sizes (log2)
system.mem_ctrls.writePktSize::1                    0                       # Write request sizes (log2)
system.mem_ctrls.writePktSize::2                    0                       # Write request sizes (log2)
system.mem_ctrls.writePktSize::3                    0                       # Write request sizes (log2)
system.mem_ctrls.writePktSize::4                    0                       # Write request sizes (log2)
system.mem_ctrls.writePktSize::5                    0                       # Write request sizes (log2)
system.mem_ctrls.writePktSize::6                63505                       # Write request sizes (log2)
system.mem_ctrls.rdQLenPdf::0                  121299                       # What read queue length does an incoming req see
system.mem_ctrls.rdQLenPdf::1                   56952                       # What read queue length does an incoming req see
system.mem_ctrls.rdQLenPdf::2                    2693                       # What read queue length does an incoming req see
system.mem_ctrls.rdQLenPdf::3                     424                       # What read queue length does an incoming req see
system.mem_ctrls.rdQLenPdf::4                       1                       # What read queue length does an incoming req see
system.mem_ctrls.rdQLenPdf::5                       0                       # What read queue length does an incoming req see
system.mem_ctrls.rdQLenPdf::6                       0                       # What read queue length does an incoming req see
system.mem_ctrls.rdQLenPdf::7                       0                       # What read queue length does an incoming req see
[...]
system.mem_ctrls.dram.bw_write::.writebacks     50547839                       # Write bandwidth from this memory (bytes/s)
system.mem_ctrls.dram.bw_write::total        50547839                       # Write bandwidth from this memory (bytes/s)
system.mem_ctrls.dram.bw_total::.writebacks     50547839                       # Total bandwidth to/from this memory (bytes/s)
system.mem_ctrls.dram.bw_total::.cpu.inst       530114                       # Total bandwidth to/from this memory (bytes/s)
system.mem_ctrls.dram.bw_total::.cpu.data    143845436                       # Total bandwidth to/from this memory (bytes/s)
system.mem_ctrls.dram.bw_total::total       194923389                       # Total bandwidth to/from this memory (bytes/s)
system.mem_ctrls.dram.readBursts               181369                       # Number of DRAM read bursts
system.mem_ctrls.dram.writeBursts               63477                       # Number of DRAM write bursts
system.mem_ctrls.dram.perBankRdBursts::0        11440                       # Per bank write bursts
system.mem_ctrls.dram.perBankRdBursts::1        11517                       # Per bank write bursts
system.mem_ctrls.dram.perBankRdBursts::2        11421                       # Per bank write bursts
system.mem_ctrls.dram.perBankRdBursts::3        11500                       # Per bank write bursts
system.mem_ctrls.dram.perBankRdBursts::4        11424                       # Per bank write bursts
system.mem_ctrls.dram.perBankRdBursts::5        11275                       # Per bank write bursts
system.mem_ctrls.dram.perBankRdBursts::6        11318                       # Per bank write bursts
system.mem_ctrls.dram.perBankRdBursts::7        11159                       # Per bank write bursts
system.mem_ctrls.dram.perBankRdBursts::8        11342                       # Per bank write bursts
system.mem_ctrls.dram.perBankRdBursts::9        11103                       # Per bank write bursts
system.mem_ctrls.dram.perBankRdBursts::10        11323                       # Per bank write bursts
system.mem_ctrls.dram.perBankRdBursts::11        11400                       # Per bank write bursts
system.mem_ctrls.dram.perBankRdBursts::12        11308                       # Per bank write bursts
system.mem_ctrls.dram.perBankRdBursts::13        11362                       # Per bank write bursts
system.mem_ctrls.dram.perBankRdBursts::14        11300                       # Per bank write bursts
system.mem_ctrls.dram.perBankRdBursts::15        11177                       # Per bank write bursts
system.mem_ctrls.dram.perBankWrBursts::0         3943                       # Per bank write bursts
system.mem_ctrls.dram.perBankWrBursts::1         4133                       # Per bank write bursts
system.mem_ctrls.dram.perBankWrBursts::2         4107                       # Per bank write bursts
system.mem_ctrls.dram.perBankWrBursts::3         4062                       # Per bank write bursts
system.mem_ctrls.dram.perBankWrBursts::4         4081                       # Per bank write bursts
system.mem_ctrls.dram.perBankWrBursts::5         4035                       # Per bank write bursts
system.mem_ctrls.dram.perBankWrBursts::6         4074                       # Per bank write bursts
system.mem_ctrls.dram.perBankWrBursts::7         3944                       # Per bank write bursts
system.mem_ctrls.dram.perBankWrBursts::8         3962                       # Per bank write bursts
system.mem_ctrls.dram.perBankWrBursts::9         3821                       # Per bank write bursts
system.mem_ctrls.dram.perBankWrBursts::10         3899                       # Per bank write bursts
system.mem_ctrls.dram.perBankWrBursts::11         3899                       # Per bank write bursts
system.mem_ctrls.dram.perBankWrBursts::12         3870                       # Per bank write bursts
system.mem_ctrls.dram.perBankWrBursts::13         3888                       # Per bank write bursts
system.mem_ctrls.dram.perBankWrBursts::14         3882                       # Per bank write bursts
system.mem_ctrls.dram.perBankWrBursts::15         3877                       # Per bank write bursts
system.mem_ctrls.dram.totQLat              2306828750                       # Total ticks spent queuing
system.mem_ctrls.dram.totBusLat             906845000                       # Total ticks spent in databus transfers
system.mem_ctrls.dram.totMemAccLat         5707497500                       # Total ticks spent from burst creation until serviced by the DRAM
system.mem_ctrls.dram.avgQLat                12718.98                       # Average queueing delay per DRAM burst
system.mem_ctrls.dram.avgBusLat               5000.00                       # Average bus latency per DRAM burst
system.mem_ctrls.dram.avgMemAccLat           31468.98                       # Average memory access latency per DRAM burst
system.mem_ctrls.dram.readRowHits              132546                       # Number of row buffer hits during reads
system.mem_ctrls.dram.writeRowHits              49952                       # Number of row buffer hits during writes
system.mem_ctrls.dram.readRowHitRate            73.08                       # Row buffer hit rate for reads
system.mem_ctrls.dram.writeRowHitRate           78.69                       # Row buffer hit rate for writes
system.mem_ctrls.dram.bytesPerActivate::samples        62348                       # Bytes accessed per row activation
system.mem_ctrls.dram.bytesPerActivate::mean   251.333547                       # Bytes accessed per row activation
system.mem_ctrls.dram.bytesPerActivate::gmean   138.105338                       # Bytes accessed per row activation
system.mem_ctrls.dram.bytesPerActivate::stdev   302.783943                       # Bytes accessed per row activation
system.mem_ctrls.dram.bytesPerActivate::0-127        35790     57.40%     57.40% # Bytes accessed per row activation
system.mem_ctrls.dram.bytesPerActivate::128-255         8159     13.09%     70.49% # Bytes accessed per row activation
system.mem_ctrls.dram.bytesPerActivate::256-383         1405      2.25%     72.74% # Bytes accessed per row activation
system.mem_ctrls.dram.bytesPerActivate::384-511         1077      1.73%     74.47% # Bytes accessed per row activation
system.mem_ctrls.dram.bytesPerActivate::512-639         8355     13.40%     87.87% # Bytes accessed per row activation
system.mem_ctrls.dram.bytesPerActivate::640-767         1389      2.23%     90.10% # Bytes accessed per row activation
system.mem_ctrls.dram.bytesPerActivate::768-895          393      0.63%     90.73% # Bytes accessed per row activation
system.mem_ctrls.dram.bytesPerActivate::896-1023          320      0.51%     91.24% # Bytes accessed per row activation
system.mem_ctrls.dram.bytesPerActivate::1024-1151         5460      8.76%    100.00% # Bytes accessed per row activation
system.mem_ctrls.dram.bytesPerActivate::total        62348                       # Bytes accessed per row activation
system.mem_ctrls.dram.bytesRead              11607616                       # Total number of bytes read from DRAM
system.mem_ctrls.dram.bytesWritten            4062528                       # Total number of bytes written to DRAM
system.mem_ctrls.dram.avgRdBW              144.363610                       # Average DRAM read bandwidth in MiBytes/s
system.mem_ctrls.dram.avgWrBW               50.525552                       # Average DRAM write bandwidth in MiBytes/s
system.mem_ctrls.dram.peakBW                 12800.00                       # Theoretical peak bandwidth in MiByte/s
system.mem_ctrls.dram.busUtil                    1.52                       # Data bus utilization in percentage
system.mem_ctrls.dram.busUtilRead                1.13                       # Data bus utilization in percentage for reads
system.mem_ctrls.dram.busUtilWrite               0.39                       # Data bus utilization in percentage for writes
system.mem_ctrls.dram.pageHitRate               74.54                       # Row buffer hit rate, read and write combined
system.mem_ctrls.dram.power_state.pwrStateResidencyTicks::UNDEFINED  80405415000                       # Cumulative time (in ticks) in various power states
system.mem_ctrls.dram.rank0.actEnergy       226188060                       # Energy for activate commands per rank (pJ)
system.mem_ctrls.dram.rank0.preEnergy       120221805                       # Energy for precharge commands per rank (pJ)
system.mem_ctrls.dram.rank0.readEnergy      650125560                       # Energy for read commands per rank (pJ)
system.mem_ctrls.dram.rank0.writeEnergy     169018380                       # Energy for write commands per rank (pJ)
system.mem_ctrls.dram.rank0.refreshEnergy 6346772640.000001                       # Energy for refresh commands per rank (pJ)
system.mem_ctrls.dram.rank0.actBackEnergy  19029989220                       # Energy for active background per rank (pJ)
system.mem_ctrls.dram.rank0.preBackEnergy  14850425280                       # Energy for precharge background per rank (pJ)
system.mem_ctrls.dram.rank0.actPowerDownEnergy            0                       # Energy for active power-down per rank (pJ)
system.mem_ctrls.dram.rank0.prePowerDownEnergy            0                       # Energy for precharge power-down per rank (pJ)
system.mem_ctrls.dram.rank0.selfRefreshEnergy            0                       # Energy for self refresh per rank (pJ)
system.mem_ctrls.dram.rank0.totalEnergy   41392740945                       # Total energy per rank (pJ)
system.mem_ctrls.dram.rank0.averagePower   514.800414                       # Core power per rank (mW)
system.mem_ctrls.dram.rank0.totalIdleTime            0                       # Total Idle time Per DRAM Rank
system.mem_ctrls.dram.rank0.pwrStateTime::IDLE  38413374750                       # Time in different power states
system.mem_ctrls.dram.rank0.pwrStateTime::REF   2684760000                       # Time in different power states
system.mem_ctrls.dram.rank0.pwrStateTime::SREF            0                       # Time in different power states
system.mem_ctrls.dram.rank0.pwrStateTime::PRE_PDN            0                       # Time in different power states
system.mem_ctrls.dram.rank0.pwrStateTime::ACT  39307280250                       # Time in different power states
system.mem_ctrls.dram.rank0.pwrStateTime::ACT_PDN            0                       # Time in different power states
system.mem_ctrls.dram.rank1.actEnergy       218976660                       # Energy for activate commands per rank (pJ)
system.mem_ctrls.dram.rank1.preEnergy       116388855                       # Energy for precharge commands per rank (pJ)
system.mem_ctrls.dram.rank1.readEnergy      644849100                       # Energy for read commands per rank (pJ)
system.mem_ctrls.dram.rank1.writeEnergy     162331560                       # Energy for write commands per rank (pJ)
system.mem_ctrls.dram.rank1.refreshEnergy 6346772640.000001                       # Energy for refresh commands per rank (pJ)
system.mem_ctrls.dram.rank1.actBackEnergy  18520897140                       # Energy for active background per rank (pJ)
system.mem_ctrls.dram.rank1.preBackEnergy  15279134400                       # Energy for precharge background per rank (pJ)
system.mem_ctrls.dram.rank1.actPowerDownEnergy            0                       # Energy for active power-down per rank (pJ)
system.mem_ctrls.dram.rank1.prePowerDownEnergy            0                       # Energy for precharge power-down per rank (pJ)
system.mem_ctrls.dram.rank1.selfRefreshEnergy            0                       # Energy for self refresh per rank (pJ)
system.mem_ctrls.dram.rank1.totalEnergy   41289350355                       # Total energy per rank (pJ)
system.mem_ctrls.dram.rank1.averagePower   513.514548                       # Core power per rank (mW)
system.mem_ctrls.dram.rank1.totalIdleTime            0                       # Total Idle time Per DRAM Rank
system.mem_ctrls.dram.rank1.pwrStateTime::IDLE  39530199750                       # Time in different power states
system.mem_ctrls.dram.rank1.pwrStateTime::REF   2684760000                       # Time in different power states
system.mem_ctrls.dram.rank1.pwrStateTime::SREF            0                       # Time in different power states
system.mem_ctrls.dram.rank1.pwrStateTime::PRE_PDN            0                       # Time in different power states
system.mem_ctrls.dram.rank1.pwrStateTime::ACT  38190455250                       # Time in different power states
system.mem_ctrls.dram.rank1.pwrStateTime::ACT_PDN            0                       # Time in different power states
system.mem_ctrls.power_state.pwrStateResidencyTicks::UNDEFINED  80405415000                       # Cumulative time (in ticks) in various power states
system.membus.trans_dist::ReadResp              53669                       # Transaction distribution
system.membus.trans_dist::WritebackDirty        63505                       # Transaction distribution
system.membus.trans_dist::CleanEvict            51960                       # Transaction distribution
system.membus.trans_dist::ReadExReq            127715                       # Transaction distribution
system.membus.trans_dist::ReadExResp           127715                       # Transaction distribution
system.membus.trans_dist::ReadSharedReq         53669                       # Transaction distribution
system.membus.pkt_count_system.l2.mem_side_port::system.mem_ctrls.port       478233                       # Packet count per connected requestor and responder (bytes)
system.membus.pkt_count::total                 478233                       # Packet count per connected requestor and responder (bytes)
system.membus.pkt_size_system.l2.mem_side_port::system.mem_ctrls.port     15672896                       # Cumulative packet size per connected requestor and responder (bytes)
system.membus.pkt_size::total                15672896                       # Cumulative packet size per connected requestor and responder (bytes)
system.membus.snoops                                0                       # Total snoops (count)
system.membus.snoopTraffic                          0                       # Total snoop traffic (bytes)
system.membus.snoop_fanout::samples            181384                       # Request fanout histogram
system.membus.snoop_fanout::mean                    0                       # Request fanout histogram
system.membus.snoop_fanout::stdev                   0                       # Request fanout histogram
system.membus.snoop_fanout::underflows              0      0.00%      0.00% # Request fanout histogram
system.membus.snoop_fanout::0                  181384    100.00%    100.00% # Request fanout histogram
system.membus.snoop_fanout::1                       0      0.00%    100.00% # Request fanout histogram
system.membus.snoop_fanout::overflows               0      0.00%    100.00% # Request fanout histogram
system.membus.snoop_fanout::min_value               0                       # Request fanout histogram
system.membus.snoop_fanout::max_value               0                       # Request fanout histogram
system.membus.snoop_fanout::total              181384                       # Request fanout histogram
system.membus.power_state.pwrStateResidencyTicks::UNDEFINED  80405415000                       # Cumulative time (in ticks) in various power states
system.membus.reqLayer0.occupancy           584184500                       # Layer occupancy (ticks)
system.membus.reqLayer0.utilization               0.7                       # Layer utilization (%)
system.membus.respLayer1.occupancy          975044750                       # Layer occupancy (ticks)
system.membus.respLayer1.utilization              1.2                       # Layer utilization (%)
system.tol2bus.trans_dist::ReadResp            238574                       # Transaction distribution
system.tol2bus.trans_dist::WritebackDirty       468320                       # Transaction distribution
system.tol2bus.trans_dist::WritebackClean          233                       # Transaction distribution
system.tol2bus.trans_dist::CleanEvict          107721                       # Transaction distribution
system.tol2bus.trans_dist::ReadExReq           224327                       # Transaction distribution
system.tol2bus.trans_dist::ReadExResp          224327                       # Transaction distribution
system.tol2bus.trans_dist::ReadCleanReq           738                       # Transaction distribution
system.tol2bus.trans_dist::ReadSharedReq       237836                       # Transaction distribution
system.tol2bus.pkt_count_system.cpu.icache.mem_side_port::system.l2.cpu_side_port         1709                       # Packet count per connected requestor and responder (bytes)
system.tol2bus.pkt_count_system.cpu.dcache.mem_side_port::system.l2.cpu_side_port      1384441                       # Packet count per connected requestor and responder (bytes)
system.tol2bus.pkt_count::total               1386150                       # Packet count per connected requestor and responder (bytes)
system.tol2bus.pkt_size_system.cpu.icache.mem_side_port::system.l2.cpu_side_port        62144                       # Cumulative packet size per connected requestor and responder (bytes)
system.tol2bus.pkt_size_system.cpu.dcache.mem_side_port::system.l2.cpu_side_port     55486592                       # Cumulative packet size per connected requestor and responder (bytes)
system.tol2bus.pkt_size::total               55548736                       # Cumulative packet size per connected requestor and responder (bytes)
system.tol2bus.snoops                          115926                       # Total snoops (count)
system.tol2bus.snoopTraffic                   4064320                       # Total snoop traffic (bytes)
system.tol2bus.snoop_fanout::samples           578827                       # Request fanout histogram
system.tol2bus.snoop_fanout::mean            0.002973                       # Request fanout histogram
system.tol2bus.snoop_fanout::stdev           0.054446                       # Request fanout histogram
system.tol2bus.snoop_fanout::underflows             0      0.00%      0.00% # Request fanout histogram
system.tol2bus.snoop_fanout::0                 577106     99.70%     99.70% # Request fanout histogram
system.tol2bus.snoop_fanout::1                   1721      0.30%    100.00% # Request fanout histogram
system.tol2bus.snoop_fanout::2                      0      0.00%    100.00% # Request fanout histogram
system.tol2bus.snoop_fanout::overflows              0      0.00%    100.00% # Request fanout histogram
system.tol2bus.snoop_fanout::min_value              0                       # Request fanout histogram
system.tol2bus.snoop_fanout::max_value              1                       # Request fanout histogram
system.tol2bus.snoop_fanout::total             578827                       # Request fanout histogram
system.tol2bus.power_state.pwrStateResidencyTicks::UNDEFINED  80405415000                       # Cumulative time (in ticks) in various power states
system.tol2bus.reqLayer0.occupancy          866672500                       # Layer occupancy (ticks)
system.tol2bus.reqLayer0.utilization              1.1                       # Layer utilization (%)
system.tol2bus.respLayer0.occupancy           1107000                       # Layer occupancy (ticks)
system.tol2bus.respLayer0.utilization             0.0                       # Layer utilization (%)
system.tol2bus.respLayer1.occupancy         693247494                       # Layer occupancy (ticks)
system.tol2bus.respLayer1.utilization             0.9                       # Layer utilization (%)
system.voltage_domain.voltage                       1                       # Voltage in Volts

---------- End Simulation Statistics   ----------
