
---------- Begin Simulation Statistics ----------
final_tick                                89868049000                       # Number of ticks from beginning of simulation (restored from checkpoints and never reset)
host_inst_rate                                 166540                       # Simulator instruction rate (inst/s)
host_mem_usage                                 661260                       # Number of bytes of host memory used
host_op_rate                                   166867                       # Simulator op (including micro ops) rate (op/s)
host_seconds                                   600.46                       # Real time elapsed on the host
host_tick_rate                              149665887                       # Simulator tick rate (ticks/s)
sim_freq                                 1000000000000                       # Frequency of simulated ticks
sim_insts                                   100000001                       # Number of instructions simulated
sim_ops                                     100196356                       # Number of ops (including micro ops) simulated
sim_seconds                                  0.089868                       # Number of seconds simulated
sim_ticks                                 89868049000                       # Number of ticks simulated
system.cpu.committedInsts                   100000001                       # Number of instructions committed
system.cpu.committedOps                     100196356                       # Number of ops (including micro ops) committed
system.cpu.cpi                               1.797361                       # CPI: cycles per instruction
system.cpu.discardedOps                        189885                       # Number of ops (including micro ops) which were discarded before commit
system.cpu.idleCycles                        46144027                       # Total number of cycles that the object has spent stopped
system.cpu.ipc                               0.556371                       # IPC: instructions per cycle
system.cpu.numCycles                        179736098                       # number of cpu cycles simulated
system.cpu.numFetchSuspends                         0                       # Number of times Execute suspended instruction fetching
system.cpu.numWorkItemsCompleted                    0                       # number of work items this cpu completed
system.cpu.numWorkItemsStarted                      0                       # number of work items this cpu started
system.cpu.op_class_0::No_OpClass                   0      0.00%      0.00% # Class of committed instruction
system.cpu.op_class_0::IntAlu                46526863     46.44%     46.44% # Class of committed instruction
system.cpu.op_class_0::IntMult                  20723      0.02%     46.46% # Class of committed instruction
system.cpu.op_class_0::IntDiv                       0      0.00%     46.46% # Class of committed instruction
system.cpu.op_class_0::FloatAdd                     0      0.00%     46.46% # Class of committed instruction
system.cpu.op_class_0::FloatCmp                     0      0.00%     46.46% # Class of committed instruction
system.cpu.op_class_0::FloatCvt                     0      0.00%     46.46% # Class of committed instruction
system.cpu.op_class_0::FloatMult                    0      0.00%     46.46% # Class of committed instruction
system.cpu.op_class_0::FloatMultAcc                 0      0.00%     46.46% # Class of committed instruction
system.cpu.op_class_0::FloatDiv                     0      0.00%     46.46% # Class of committed instruction
system.cpu.op_class_0::FloatMisc                    0      0.00%     46.46% # Class of committed instruction
system.cpu.op_class_0::FloatSqrt                    0      0.00%     46.46% # Class of committed instruction
system.cpu.op_class_0::SimdAdd                      0      0.00%     46.46% # Class of committed instruction
system.cpu.op_class_0::SimdAddAcc                   0      0.00%     46.46% # Class of committed instruction
system.cpu.op_class_0::SimdAlu                      0      0.00%     46.46% # Class of committed instruction
system.cpu.op_class_0::SimdCmp                      0      0.00%     46.46% # Class of committed instruction
system.cpu.op_class_0::SimdCvt                      0      0.00%     46.46% # Class of committed instruction
system.cpu.op_class_0::SimdMisc                     0      0.00%     46.46% # Class of committed instruction
system.cpu.op_class_0::SimdMult                     0      0.00%     46.46% # Class of committed instruction
system.cpu.op_class_0::SimdMultAcc                  0      0.00%     46.46% # Class of committed instruction
system.cpu.op_class_0::SimdShift                    0      0.00%     46.46% # Class of committed instruction
system.cpu.op_class_0::SimdShiftAcc                 0      0.00%     46.46% # Class of committed instruction
system.cpu.op_class_0::SimdDiv                      0      0.00%     46.46% # Class of committed instruction
system.cpu.op_class_0::SimdSqrt                     0      0.00%     46.46% # Class of committed instruction
system.cpu.op_class_0::SimdFloatAdd                 0      0.00%     46.46% # Class of committed instruction
system.cpu.op_class_0::SimdFloatAlu                 0      0.00%     46.46% # Class of committed instruction
system.cpu.op_class_0::SimdFloatCmp                 0      0.00%     46.46% # Class of committed instruction
system.cpu.op_class_0::SimdFloatCvt                 0      0.00%     46.46% # Class of committed instruction
system.cpu.op_class_0::SimdFloatDiv                 0      0.00%     46.46% # Class of committed instruction
system.cpu.op_class_0::SimdFloatMisc               18      0.00%     46.46% # Class of committed instruction
system.cpu.op_class_0::SimdFloatMult                0      0.00%     46.46% # Class of committed instruction
system.cpu.op_class_0::SimdFloatMultAcc             0      0.00%     46.46% # Class of committed instruction
system.cpu.op_class_0::SimdFloatSqrt                0      0.00%     46.46% # Class of committed instruction
system.cpu.op_class_0::SimdReduceAdd                0      0.00%     46.46% # Class of committed instruction
system.cpu.op_class_0::SimdReduceAlu                0      0.00%     46.46% # Class of committed instruction
system.cpu.op_class_0::SimdReduceCmp                0      0.00%     46.46% # Class of committed instruction
system.cpu.op_class_0::SimdFloatReduceAdd            0      0.00%     46.46% # Class of committed instruction
system.cpu.op_class_0::SimdFloatReduceCmp            0      0.00%     46.46% # Class of committed instruction
system.cpu.op_class_0::SimdAes                      0      0.00%     46.46% # Class of committed instruction
system.cpu.op_class_0::SimdAesMix                   0      0.00%     46.46% # Class of committed instruction
system.cpu.op_class_0::SimdSha1Hash                 0      0.00%     46.46% # Class of committed instruction
system.cpu.op_class_0::SimdSha1Hash2                0      0.00%     46.46% # Class of committed instruction
system.cpu.op_class_0::SimdSha256Hash               0      0.00%     46.46% # Class of committed instruction
system.cpu.op_class_0::SimdSha256Hash2              0      0.00%     46.46% # Class of committed instruction
system.cpu.op_class_0::SimdShaSigma2                0      0.00%     46.46% # Class of committed instruction
system.cpu.op_class_0::SimdShaSigma3                0      0.00%     46.46% # Class of committed instruction
system.cpu.op_class_0::SimdPredAlu                  0      0.00%     46.46% # Class of committed instruction
system.cpu.op_class_0::MemRead               42690537     42.61%     89.06% # Class of committed instruction
system.cpu.op_class_0::MemWrite              10958215     10.94%    100.00% # Class of committed instruction
system.cpu.op_class_0::FloatMemRead                 0      0.00%    100.00% # Class of committed instruction
system.cpu.op_class_0::FloatMemWrite                0      0.00%    100.00% # Class of committed instruction
system.cpu.op_class_0::IprAccess                    0      0.00%    100.00% # Class of committed instruction
system.cpu.op_class_0::InstPrefetch                 0      0.00%    100.00% # Class of committed instruction
system.cpu.op_class_0::total                100196356                       # Class of committed instruction
system.cpu.tickCycles                       133592071                       # Number of cycles that the object actually ticked
system.cpu.workload.numSyscalls                    85                       # Number of system calls
system.membus.snoop_filter.hit_multi_requests            0                       # Number of requests hitting in the snoop filter with multiple (>1) holders of the requested data.
system.membus.snoop_filter.hit_multi_snoops            0                       # Number of snoops hitting in the snoop filter with multiple (>1) holders of the requested data.
system.membus.snoop_filter.hit_single_requests       174163                       # Number of requests hitting in the snoop filter with a single holder of the requested data.
system.membus.snoop_filter.hit_single_snoops            0                       # Number of snoops hitting in the snoop filter with a single holder of the requested data.
system.membus.snoop_filter.tot_requests        381559                       # Total number of requests made to the snoop filter.
system.membus.snoop_filter.tot_snoops               0                       # Total number of snoops made to the snoop filter.
system.tol2bus.snoop_filter.hit_multi_requests         2745                       # Number of requests hitting in the snoop filter with multiple (>1) holders of the requested data.
system.tol2bus.snoop_filter.hit_multi_snoops            0                       # Number of snoops hitting in the snoop filter with multiple (>1) holders of the requested data.
system.tol2bus.snoop_filter.hit_single_requests      1294751                       # Number of requests hitting in the snoop filter with a single holder of the requested data.
system.tol2bus.snoop_filter.hit_single_snoops          558                       # Number of snoops hitting in the snoop filter with a single holder of the requested data.
system.tol2bus.snoop_filter.tot_requests      2590262                       # Total number of requests made to the snoop filter.
system.tol2bus.snoop_filter.tot_snoops            558                       # Total number of snoops made to the snoop filter.
system.clk_domain.clock                          1000                       # Clock period in ticks
system.cpu.branchPred.lookups                 4485959                       # Number of BP lookups
system.cpu.branchPred.condPredicted           3735554                       # Number of conditional branches predicted
system.cpu.branchPred.condIncorrect             81005                       # Number of conditional branches incorrect
system.cpu.branchPred.BTBLookups              2103949                       # Number of BTB lookups
system.cpu.branchPred.BTBHits                 2101945                       # Number of BTB hits
system.cpu.branchPred.BTBHitPct             99.904751                       # BTB Hit Percentage
system.cpu.branchPred.RASUsed                   65394                       # Number of times the RAS was used to get a target.
system.cpu.branchPred.RASIncorrect                 14                       # Number of incorrect RAS predictions.
system.cpu.branchPred.indirectLookups             698                       # Number of indirect predictor lookups.
system.cpu.branchPred.indirectHits                290                       # Number of indirect target hits.
system.cpu.branchPred.indirectMisses              408                       # Number of indirect misses.
system.cpu.branchPred.indirectMispredicted          170                       # Number of mispredicted indirect branches.
system.cpu.dcache.demand_hits::.cpu.data     50706342                       # number of demand (read+write) hits
system.cpu.dcache.demand_hits::total         50706342                       # number of demand (read+write) hits
system.cpu.dcache.overall_hits::.cpu.data     50706705                       # number of overall hits
system.cpu.dcache.overall_hits::total        50706705                       # number of overall hits
system.cpu.dcache.demand_misses::.cpu.data      1361128                       # number of demand (read+write) misses
system.cpu.dcache.demand_misses::total        1361128                       # number of demand (read+write) misses
system.cpu.dcache.overall_misses::.cpu.data      1369182                       # number of overall misses
system.cpu.dcache.overall_misses::total       1369182                       # number of overall misses
system.cpu.dcache.demand_miss_latency::.cpu.data  33664093489                       # number of demand (read+write) miss cycles
system.cpu.dcache.demand_miss_latency::total  33664093489                       # number of demand (read+write) miss cycles
system.cpu.dcache.overall_miss_latency::.cpu.data  33664093489                       # number of overall miss cycles
system.cpu.dcache.overall_miss_latency::total  33664093489                       # number of overall miss cycles
system.cpu.dcache.demand_accesses::.cpu.data     52067470                       # number of demand (read+write) accesses
system.cpu.dcache.demand_accesses::total     52067470                       # number of demand (read+write) accesses
system.cpu.dcache.overall_accesses::.cpu.data     52075887                       # number of overall (read+write) accesses
system.cpu.dcache.overall_accesses::total     52075887                       # number of overall (read+write) accesses
system.cpu.dcache.demand_miss_rate::.cpu.data     0.026142                       # miss rate for demand accesses
system.cpu.dcache.demand_miss_rate::total     0.026142                       # miss rate for demand accesses
system.cpu.dcache.overall_miss_rate::.cpu.data     0.026292                       # miss rate for overall accesses
system.cpu.dcache.overall_miss_rate::total     0.026292                       # miss rate for overall accesses
system.cpu.dcache.demand_avg_miss_latency::.cpu.data 24732.496495                       # average overall miss latency
system.cpu.dcache.demand_avg_miss_latency::total 24732.496495                       # average overall miss latency
system.cpu.dcache.overall_avg_miss_latency::.cpu.data 24587.011434                       # average overall miss latency
system.cpu.dcache.overall_avg_miss_latency::total 24587.011434                       # average overall miss latency
system.cpu.dcache.blocked_cycles::no_mshrs       233151                       # number of cycles access was blocked
system.cpu.dcache.blocked_cycles::no_targets            0                       # number of cycles access was blocked
system.cpu.dcache.blocked::no_mshrs              7011                       # number of cycles access was blocked
system.cpu.dcache.blocked::no_targets               0                       # number of cycles access was blocked
system.cpu.dcache.avg_blocked_cycles::no_mshrs    33.255028                       # average number of cycles each access was blocked
system.cpu.dcache.avg_blocked_cycles::no_targets          nan                       # average number of cycles each access was blocked
system.cpu.dcache.writebacks::.writebacks      1173756                       # number of writebacks
system.cpu.dcache.writebacks::total           1173756                       # number of writebacks
system.cpu.dcache.demand_mshr_hits::.cpu.data        74403                       # number of demand (read+write) MSHR hits
system.cpu.dcache.demand_mshr_hits::total        74403                       # number of demand (read+write) MSHR hits
system.cpu.dcache.overall_mshr_hits::.cpu.data        74403                       # number of overall MSHR hits
system.cpu.dcache.overall_mshr_hits::total        74403                       # number of overall MSHR hits
system.cpu.dcache.demand_mshr_misses::.cpu.data      1286725                       # number of demand (read+write) MSHR misses
system.cpu.dcache.demand_mshr_misses::total      1286725                       # number of demand (read+write) MSHR misses
system.cpu.dcache.overall_mshr_misses::.cpu.data      1294775                       # number of overall MSHR misses
system.cpu.dcache.overall_mshr_misses::total      1294775                       # number of overall MSHR misses
system.cpu.dcache.demand_mshr_miss_latency::.cpu.data  30624695994                       # number of demand (read+write) MSHR miss cycles
system.cpu.dcache.demand_mshr_miss_latency::total  30624695994                       # number of demand (read+write) MSHR miss cycles
system.cpu.dcache.overall_mshr_miss_latency::.cpu.data  31301504492                       # number of overall MSHR miss cycles
system.cpu.dcache.overall_mshr_miss_latency::total  31301504492                       # number of overall MSHR miss cycles
system.cpu.dcache.demand_mshr_miss_rate::.cpu.data     0.024713                       # mshr miss rate for demand accesses
system.cpu.dcache.demand_mshr_miss_rate::total     0.024713                       # mshr miss rate for demand accesses
system.cpu.dcache.overall_mshr_miss_rate::.cpu.data     0.024863                       # mshr miss rate for overall accesses
system.cpu.dcache.overall_mshr_miss_rate::total     0.024863                       # mshr miss rate for overall accesses
system.cpu.dcache.demand_avg_mshr_miss_latency::.cpu.data 23800.498159                       # average overall mshr miss latency
system.cpu.dcache.demand_avg_mshr_miss_latency::total 23800.498159                       # average overall mshr miss latency
system.cpu.dcache.overall_avg_mshr_miss_latency::.cpu.data 24175.246272                       # average overall mshr miss latency
system.cpu.dcache.overall_avg_mshr_miss_latency::total 24175.246272                       # average overall mshr miss latency
system.cpu.dcache.replacements                1294519                       # number of replacements
system.cpu.dcache.ReadReq_hits::.cpu.data     40285857                       # number of ReadReq hits
system.cpu.dcache.ReadReq_hits::total        40285857                       # number of ReadReq hits
system.cpu.dcache.ReadReq_misses::.cpu.data       832531                       # number of ReadReq misses
system.cpu.dcache.ReadReq_misses::total        832531                       # number of ReadReq misses
system.cpu.dcache.ReadReq_miss_latency::.cpu.data  15387984997                       # number of ReadReq miss cycles
system.cpu.dcache.ReadReq_miss_latency::total  15387984997                       # number of ReadReq miss cycles
system.cpu.dcache.ReadReq_accesses::.cpu.data     41118388                       # number of ReadReq accesses(hits+misses)
system.cpu.dcache.ReadReq_accesses::total     41118388                       # number of ReadReq accesses(hits+misses)
system.cpu.dcache.ReadReq_miss_rate::.cpu.data     0.020247                       # miss rate for ReadReq accesses
system.cpu.dcache.ReadReq_miss_rate::total     0.020247                       # miss rate for ReadReq accesses
system.cpu.dcache.ReadReq_avg_miss_latency::.cpu.data 18483.377793                       # average ReadReq miss latency
system.cpu.dcache.ReadReq_avg_miss_latency::total 18483.377793                       # average ReadReq miss latency
system.cpu.dcache.ReadReq_mshr_hits::.cpu.data         6497                       # number of ReadReq MSHR hits
system.cpu.dcache.ReadReq_mshr_hits::total         6497                       # number of ReadReq MSHR hits
system.cpu.dcache.ReadReq_mshr_misses::.cpu.data       826034                       # number of ReadReq MSHR misses
system.cpu.dcache.ReadReq_mshr_misses::total       826034                       # number of ReadReq MSHR misses
system.cpu.dcache.ReadReq_mshr_miss_latency::.cpu.data  14421762997                       # number of ReadReq MSHR miss cycles
system.cpu.dcache.ReadReq_mshr_miss_latency::total  14421762997                       # number of ReadReq MSHR miss cycles
system.cpu.dcache.ReadReq_mshr_miss_rate::.cpu.data     0.020089                       # mshr miss rate for ReadReq accesses
system.cpu.dcache.ReadReq_mshr_miss_rate::total     0.020089                       # mshr miss rate for ReadReq accesses
system.cpu.dcache.ReadReq_avg_mshr_miss_latency::.cpu.data 17459.042844                       # average ReadReq mshr miss latency
system.cpu.dcache.ReadReq_avg_mshr_miss_latency::total 17459.042844                       # average ReadReq mshr miss latency
system.cpu.dcache.WriteReq_hits::.cpu.data     10420485                       # number of WriteReq hits
system.cpu.dcache.WriteReq_hits::total       10420485                       # number of WriteReq hits
system.cpu.dcache.WriteReq_misses::.cpu.data       528597                       # number of WriteReq misses
system.cpu.dcache.WriteReq_misses::total       528597                       # number of WriteReq misses
system.cpu.dcache.WriteReq_miss_latency::.cpu.data  18276108492                       # number of WriteReq miss cycles
system.cpu.dcache.WriteReq_miss_latency::total  18276108492                       # number of WriteReq miss cycles
system.cpu.dcache.WriteReq_accesses::.cpu.data     10949082                       # number of WriteReq accesses(hits+misses)
system.cpu.dcache.WriteReq_accesses::total     10949082                       # number of WriteReq accesses(hits+misses)
system.cpu.dcache.WriteReq_miss_rate::.cpu.data     0.048278                       # miss rate for WriteReq accesses
system.cpu.dcache.WriteReq_miss_rate::total     0.048278                       # miss rate for WriteReq accesses
system.cpu.dcache.WriteReq_avg_miss_latency::.cpu.data 34574.748801                       # average WriteReq miss latency
system.cpu.dcache.WriteReq_avg_miss_latency::total 34574.748801                       # average WriteReq miss latency
system.cpu.dcache.WriteReq_mshr_hits::.cpu.data        67906                       # number of WriteReq MSHR hits
system.cpu.dcache.WriteReq_mshr_hits::total        67906                       # number of WriteReq MSHR hits
system.cpu.dcache.WriteReq_mshr_misses::.cpu.data       460691                       # number of WriteReq MSHR misses
system.cpu.dcache.WriteReq_mshr_misses::total       460691                       # number of WriteReq MSHR misses
system.cpu.dcache.WriteReq_mshr_miss_latency::.cpu.data  16202932997                       # number of WriteReq MSHR miss cycles
system.cpu.dcache.WriteReq_mshr_miss_latency::total  16202932997                       # number of WriteReq MSHR miss cycles
system.cpu.dcache.WriteReq_mshr_miss_rate::.cpu.data     0.042076                       # mshr miss rate for WriteReq accesses
system.cpu.dcache.WriteReq_mshr_miss_rate::total     0.042076                       # mshr miss rate for WriteReq accesses
system.cpu.dcache.WriteReq_avg_mshr_miss_latency::.cpu.data 35170.934524                       # average WriteReq mshr miss latency
system.cpu.dcache.WriteReq_avg_mshr_miss_latency::total 35170.934524                       # average WriteReq mshr miss latency
system.cpu.dcache.SoftPFReq_hits::.cpu.data          363                       # number of SoftPFReq hits
system.cpu.dcache.SoftPFReq_hits::total           363                       # number of SoftPFReq hits
system.cpu.dcache.SoftPFReq_misses::.cpu.data         8054                       # number of SoftPFReq misses
system.cpu.dcache.SoftPFReq_misses::total         8054                       # number of SoftPFReq misses
system.cpu.dcache.SoftPFReq_accesses::.cpu.data         8417                       # number of SoftPFReq accesses(hits+misses)
system.cpu.dcache.SoftPFReq_accesses::total         8417                       # number of SoftPFReq accesses(hits+misses)
system.cpu.dcache.SoftPFReq_miss_rate::.cpu.data     0.956873                       # miss rate for SoftPFReq accesses
system.cpu.dcache.SoftPFReq_miss_rate::total     0.956873                       # miss rate for SoftPFReq accesses
system.cpu.dcache.SoftPFReq_mshr_misses::.cpu.data         8050                       # number of SoftPFReq MSHR misses
system.cpu.dcache.SoftPFReq_mshr_misses::total         8050                       # number of SoftPFReq MSHR misses
system.cpu.dcache.SoftPFReq_mshr_miss_latency::.cpu.data    676808498                       # number of SoftPFReq MSHR miss cycles
system.cpu.dcache.SoftPFReq_mshr_miss_latency::total    676808498                       # number of SoftPFReq MSHR miss cycles
system.cpu.dcache.SoftPFReq_mshr_miss_rate::.cpu.data     0.956398                       # mshr miss rate for SoftPFReq accesses
system.cpu.dcache.SoftPFReq_mshr_miss_rate::total     0.956398                       # mshr miss rate for SoftPFReq accesses
system.cpu.dcache.SoftPFReq_avg_mshr_miss_latency::.cpu.data 84075.589814                       # average SoftPFReq mshr miss latency
system.cpu.dcache.SoftPFReq_avg_mshr_miss_latency::total 84075.589814                       # average SoftPFReq mshr miss latency
system.cpu.dcache.LoadLockedReq_hits::.cpu.data           38                       # number of LoadLockedReq hits
system.cpu.dcache.LoadLockedReq_hits::total           38                       # number of LoadLockedReq hits
system.cpu.dcache.LoadLockedReq_accesses::.cpu.data           38                       # number of LoadLockedReq accesses(hits+misses)
system.cpu.dcache.LoadLockedReq_accesses::total           38                       # number of LoadLockedReq accesses(hits+misses)
system.cpu.dcache.StoreCondReq_hits::.cpu.data           38                       # number of StoreCondReq hits
system.cpu.dcache.StoreCondReq_hits::total           38                       # number of StoreCondReq hits
system.cpu.dcache.StoreCondReq_accesses::.cpu.data           38                       # number of StoreCondReq accesses(hits+misses)
system.cpu.dcache.StoreCondReq_accesses::total           38                       # number of StoreCondReq accesses(hits+misses)
system.cpu.dcache.power_state.pwrStateResidencyTicks::UNDEFINED  89868049000                       # Cumulative time (in ticks) in various power states
system.cpu.dcache.tags.tagsinuse           253.779774                       # Cycle average of tags in use
system.cpu.dcache.tags.total_refs            52001556                       # Total number of references to valid blocks.
system.cpu.dcache.tags.sampled_refs           1294775                       # Sample count of references to valid blocks.
system.cpu.dcache.tags.avg_refs             40.162620                       # Average number of references to valid blocks.
system.cpu.dcache.tags.warmup_cycle            176500                       # Cycle when the warmup percentage was hit.
system.cpu.dcache.tags.occ_blocks::.cpu.data   253.779774                       # Average occupied blocks per requestor
system.cpu.dcache.tags.occ_percent::.cpu.data     0.991327                       # Average percentage of cache occupancy
system.cpu.dcache.tags.occ_percent::total     0.991327                       # Average percentage of cache occupancy
system.cpu.dcache.tags.occ_task_id_blocks::1024          256                       # Occupied blocks per task id
system.cpu.dcache.tags.age_task_id_blocks_1024::0           66                       # Occupied blocks per task id
system.cpu.dcache.tags.age_task_id_blocks_1024::1          170                       # Occupied blocks per task id
system.cpu.dcache.tags.age_task_id_blocks_1024::2           20                       # Occupied blocks per task id
system.cpu.dcache.tags.occ_task_id_percent::1024            1                       # Percentage of cache occupancy per task id
system.cpu.dcache.tags.tag_accesses          53370738                       # Number of tag accesses
system.cpu.dcache.tags.data_accesses         53370738                       # Number of data accesses
system.cpu.dcache.tags.power_state.pwrStateResidencyTicks::UNDEFINED  89868049000                       # Cumulative time (in ticks) in various power states
system.cpu.dtb.instHits                             0                       # ITB inst hits
system.cpu.dtb.instMisses                           0                       # ITB inst misses
system.cpu.dtb.readHits                             0                       # DTB read hits
system.cpu.dtb.readMisses                           0                       # DTB read misses
system.cpu.dtb.writeHits                            0                       # DTB write hits
system.cpu.dtb.writeMisses                          0                       # DTB write misses
system.cpu.dtb.inserts                              0                       # Number of times an entry is inserted into the TLB
system.cpu.dtb.flushTlb                             0                       # Number of times complete TLB was flushed
system.cpu.dtb.flushTlbMva                          0                       # Number of times TLB was flushed by MVA
system.cpu.dtb.flushTlbMvaAsid                      0                       # Number of times TLB was flushed by MVA & ASID
system.cpu.dtb.flushTlbAsid                         0                       # Number of times TLB was flushed by ASID
system.cpu.dtb.flushedEntries                       0                       # Number of entries that have been flushed from TLB
system.cpu.dtb.alignFaults                          0                       # Number of TLB faults due to alignment restrictions
system.cpu.dtb.prefetchFaults                       0                       # Number of TLB faults due to prefetch
system.cpu.dtb.domainFaults                         0                       # Number of TLB faults due to domain restrictions
system.cpu.dtb.permsFaults                          0                       # Number of TLB faults due to permissions restrictions
system.cpu.dtb.readAccesses                         0                       # DTB read accesses
system.cpu.dtb.writeAccesses                        0                       # DTB write accesses
system.cpu.dtb.instAccesses                         0                       # ITB inst accesses
system.cpu.dtb.hits                                 0                       # Total TLB (inst and data) hits
system.cpu.dtb.misses                               0                       # Total TLB (inst and data) misses
system.cpu.dtb.accesses                             0                       # Total TLB (inst and data) accesses
system.cpu.dtb.stage2_mmu.stage2_tlb.instHits            0                       # ITB inst hits
system.cpu.dtb.stage2_mmu.stage2_tlb.instMisses            0                       # ITB inst misses
system.cpu.dtb.stage2_mmu.stage2_tlb.readHits            0                       # DTB read hits
system.cpu.dtb.stage2_mmu.stage2_tlb.readMisses            0                       # DTB read misses
system.cpu.dtb.stage2_mmu.stage2_tlb.writeHits            0                       # DTB write hits
system.cpu.dtb.stage2_mmu.stage2_tlb.writeMisses            0                       # DTB write misses
system.cpu.dtb.stage2_mmu.stage2_tlb.inserts            0                       # Number of times an entry is inserted into the TLB
system.cpu.dtb.stage2_mmu.stage2_tlb.flushTlb            0                       # Number of times complete TLB was flushed
system.cpu.dtb.stage2_mmu.stage2_tlb.flushTlbMva            0                       # Number of times TLB was flushed by MVA
system.cpu.dtb.stage2_mmu.stage2_tlb.flushTlbMvaAsid            0                       # Number of times TLB was flushed by MVA & ASID
system.cpu.dtb.stage2_mmu.stage2_tlb.flushTlbAsid            0                       # Number of times TLB was flushed by ASID
system.cpu.dtb.stage2_mmu.stage2_tlb.flushedEntries            0                       # Number of entries that have been flushed from TLB
system.cpu.dtb.stage2_mmu.stage2_tlb.alignFaults            0                       # Number of TLB faults due to alignment restrictions
system.cpu.dtb.stage2_mmu.stage2_tlb.prefetchFaults            0                       # Number of TLB faults due to prefetch
system.cpu.dtb.stage2_mmu.stage2_tlb.domainFaults            0                       # Number of TLB faults due to domain restrictions
system.cpu.dtb.stage2_mmu.stage2_tlb.permsFaults            0                       # Number of TLB faults due to permissions restrictions
system.cpu.dtb.stage2_mmu.stage2_tlb.readAccesses            0                       # DTB read accesses
system.cpu.dtb.stage2_mmu.stage2_tlb.writeAccesses            0                       # DTB write accesses
system.cpu.dtb.stage2_mmu.stage2_tlb.instAccesses            0                       # ITB inst accesses
system.cpu.dtb.stage2_mmu.stage2_tlb.hits            0                       # Total TLB (inst and data) hits
system.cpu.dtb.stage2_mmu.stage2_tlb.misses            0                       # Total TLB (inst and data) misses
system.cpu.dtb.stage2_mmu.stage2_tlb.accesses            0                       # Total TLB (inst and data) accesses
system.cpu.dtb.stage2_mmu.stage2_tlb.walker.walks            0                       # Table walker walks requested
system.cpu.dtb.stage2_mmu.stage2_tlb.walker.requestOrigin_Requested::Data            0                       # Table walker requests started/completed, data/inst
system.cpu.dtb.stage2_mmu.stage2_tlb.walker.requestOrigin_Requested::Inst            0                       # Table walker requests started/completed, data/inst
system.cpu.dtb.stage2_mmu.stage2_tlb.walker.requestOrigin_Requested::total            0                       # Table walker requests started/completed, data/inst
system.cpu.dtb.stage2_mmu.stage2_tlb.walker.requestOrigin_Completed::Data            0                       # Table walker requests started/completed, data/inst
system.cpu.dtb.stage2_mmu.stage2_tlb.walker.requestOrigin_Completed::Inst            0                       # Table walker requests started/completed, data/inst
system.cpu.dtb.stage2_mmu.stage2_tlb.walker.requestOrigin_Completed::total            0                       # Table walker requests started/completed, data/inst
system.cpu.dtb.stage2_mmu.stage2_tlb.walker.requestOrigin::total            0                       # Table walker requests started/completed, data/inst
system.cpu.dtb.stage2_mmu.stage2_tlb.walker.power_state.pwrStateResidencyTicks::UNDEFINED  89868049000                       # Cumulative time (in ticks) in various power states
system.cpu.dtb.walker.walks                         0                       # Table walker walks requested
system.cpu.dtb.walker.requestOrigin_Requested::Data            0                       # Table walker requests started/completed, data/inst
system.cpu.dtb.walker.requestOrigin_Requested::Inst            0                       # Table walker requests started/completed, data/inst
system.cpu.dtb.walker.requestOrigin_Requested::total            0                       # Table walker requests started/completed, data/inst
system.cpu.dtb.walker.requestOrigin_Completed::Data            0                       # Table walker requests started/completed, data/inst
system.cpu.dtb.walker.requestOrigin_Completed::Inst            0                       # Table walker requests started/completed, data/inst
system.cpu.dtb.walker.requestOrigin_Completed::total            0                       # Table walker requests started/completed, data/inst
system.cpu.dtb.walker.requestOrigin::total            0                       # Table walker requests started/completed, data/inst
system.cpu.dtb.walker.power_state.pwrStateResidencyTicks::UNDEFINED  89868049000                       # Cumulative time (in ticks) in various power states
system.cpu.fetch2.intInstructions            42686943                       # Number of integer instructions successfully decoded
system.cpu.fetch2.fpInstructions                    0                       # Number of floating point instructions successfully decoded
system.cpu.fetch2.vecInstructions                   0                       # Number of SIMD instructions successfully decoded
system.cpu.fetch2.loadInstructions           43476029                       # Number of memory load instructions successfully decoded
system.cpu.fetch2.storeInstructions          11025336                       # Number of memory store instructions successfully decoded
system.cpu.fetch2.amoInstructions                   0                       # Number of memory atomic instructions successfully decoded
system.cpu.icache.demand_hits::.cpu.inst     10279221                       # number of demand (read+write) hits
system.cpu.icache.demand_hits::total         10279221                       # number of demand (read+write) hits
system.cpu.icache.overall_hits::.cpu.inst     10279221                       # number of overall hits
system.cpu.icache.overall_hits::total        10279221                       # number of overall hits
system.cpu.icache.demand_misses::.cpu.inst          737                       # number of demand (read+write) misses
system.cpu.icache.demand_misses::total            737                       # number of demand (read+write) misses
system.cpu.icache.overall_misses::.cpu.inst          737                       # number of overall misses
system.cpu.icache.overall_misses::total           737                       # number of overall misses
system.cpu.icache.demand_miss_latency::.cpu.inst     53606500                       # number of demand (read+write) miss cycles
system.cpu.icache.demand_miss_latency::total     53606500                       # number of demand (read+write) miss cycles
system.cpu.icache.overall_miss_latency::.cpu.inst     53606500                       # number of overall miss cycles
system.cpu.icache.overall_miss_latency::total     53606500                       # number of overall miss cycles
system.cpu.icache.demand_accesses::.cpu.inst     10279958                       # number of demand (read+write) accesses
system.cpu.icache.demand_accesses::total     10279958                       # number of demand (read+write) accesses
system.cpu.icache.overall_accesses::.cpu.inst     10279958                       # number of overall (read+write) accesses
system.cpu.icache.overall_accesses::total     10279958                       # number of overall (read+write) accesses
system.cpu.icache.demand_miss_rate::.cpu.inst     0.000072                       # miss rate for demand accesses
system.cpu.icache.demand_miss_rate::total     0.000072                       # miss rate for demand accesses
system.cpu.icache.overall_miss_rate::.cpu.inst     0.000072                       # miss rate for overall accesses
system.cpu.icache.overall_miss_rate::total     0.000072                       # miss rate for overall accesses
system.cpu.icache.demand_avg_miss_latency::.cpu.inst 72736.092266                       # average overall miss latency
system.cpu.icache.demand_avg_miss_latency::total 72736.092266                       # average overall miss latency
system.cpu.icache.overall_avg_miss_latency::.cpu.inst 72736.092266                       # average overall miss latency
system.cpu.icache.overall_avg_miss_latency::total 72736.092266                       # average overall miss latency
system.cpu.icache.blocked_cycles::no_mshrs            0                       # number of cycles access was blocked
system.cpu.icache.blocked_cycles::no_targets            0                       # number of cycles access was blocked
system.cpu.icache.blocked::no_mshrs                 0                       # number of cycles access was blocked
system.cpu.icache.blocked::no_targets               0                       # number of cycles access was blocked
system.cpu.icache.avg_blocked_cycles::no_mshrs          nan                       # average number of cycles each access was blocked
system.cpu.icache.avg_blocked_cycles::no_targets          nan                       # average number of cycles each access was blocked
system.cpu.icache.writebacks::.writebacks          231                       # number of writebacks
system.cpu.icache.writebacks::total               231                       # number of writebacks
system.cpu.icache.demand_mshr_misses::.cpu.inst          737                       # number of demand (read+write) MSHR misses
system.cpu.icache.demand_mshr_misses::total          737                       # number of demand (read+write) MSHR misses
system.cpu.icache.overall_mshr_misses::.cpu.inst          737                       # number of overall MSHR misses
system.cpu.icache.overall_mshr_misses::total          737                       # number of overall MSHR misses
system.cpu.icache.demand_mshr_miss_latency::.cpu.inst     52869500                       # number of demand (read+write) MSHR miss cycles
system.cpu.icache.demand_mshr_miss_latency::total     52869500                       # number of demand (read+write) MSHR miss cycles
system.cpu.icache.overall_mshr_miss_latency::.cpu.inst     52869500                       # number of overall MSHR miss cycles
system.cpu.icache.overall_mshr_miss_latency::total     52869500                       # number of overall MSHR miss cycles
system.cpu.icache.demand_mshr_miss_rate::.cpu.inst     0.000072                       # mshr miss rate for demand accesses
system.cpu.icache.demand_mshr_miss_rate::total     0.000072                       # mshr miss rate for demand accesses
system.cpu.icache.overall_mshr_miss_rate::.cpu.inst     0.000072                       # mshr miss rate for overall accesses
system.cpu.icache.overall_mshr_miss_rate::total     0.000072                       # mshr miss rate for overall accesses
system.cpu.icache.demand_avg_mshr_miss_latency::.cpu.inst 71736.092266                       # average overall mshr miss latency
system.cpu.icache.demand_avg_mshr_miss_latency::total 71736.092266                       # average overall mshr miss latency
system.cpu.icache.overall_avg_mshr_miss_latency::.cpu.inst 71736.092266                       # average overall mshr miss latency
system.cpu.icache.overall_avg_mshr_miss_latency::total 71736.092266                       # average overall mshr miss latency
system.cpu.icache.replacements                    231                       # number of replacements
system.cpu.icache.ReadReq_hits::.cpu.inst     10279221                       # number of ReadReq hits
system.cpu.icache.ReadReq_hits::total        10279221                       # number of ReadReq hits
system.cpu.icache.ReadReq_misses::.cpu.inst          737                       # number of ReadReq misses
system.cpu.icache.ReadReq_misses::total           737                       # number of ReadReq misses
system.cpu.icache.ReadReq_miss_latency::.cpu.inst     53606500                       # number of ReadReq miss cycles
system.cpu.icache.ReadReq_miss_latency::total     53606500                       # number of ReadReq miss cycles
system.cpu.icache.ReadReq_accesses::.cpu.inst     10279958                       # number of ReadReq accesses(hits+misses)
system.cpu.icache.ReadReq_accesses::total     10279958                       # number of ReadReq accesses(hits+misses)
system.cpu.icache.ReadReq_miss_rate::.cpu.inst     0.000072                       # miss rate for ReadReq accesses
system.cpu.icache.ReadReq_miss_rate::total     0.000072                       # miss rate for ReadReq accesses
system.cpu.icache.ReadReq_avg_miss_latency::.cpu.inst 72736.092266                       # average ReadReq miss latency
system.cpu.icache.ReadReq_avg_miss_latency::total 72736.092266                       # average ReadReq miss latency
system.cpu.icache.ReadReq_mshr_misses::.cpu.inst          737                       # number of ReadReq MSHR misses
system.cpu.icache.ReadReq_mshr_misses::total          737                       # number of ReadReq MSHR misses
system.cpu.icache.ReadReq_mshr_miss_latency::.cpu.inst     52869500                       # number of ReadReq MSHR miss cycles
system.cpu.icache.ReadReq_mshr_miss_latency::total     52869500                       # number of ReadReq MSHR miss cycles
system.cpu.icache.ReadReq_mshr_miss_rate::.cpu.inst     0.000072                       # mshr miss rate for ReadReq accesses
system.cpu.icache.ReadReq_mshr_miss_rate::total     0.000072                       # mshr miss rate for ReadReq accesses
system.cpu.icache.ReadReq_avg_mshr_miss_latency::.cpu.inst 71736.092266                       # average ReadReq mshr miss latency
system.cpu.icache.ReadReq_avg_mshr_miss_latency::total 71736.092266                       # average ReadReq mshr miss latency
system.cpu.icache.power_state.pwrStateResidencyTicks::UNDEFINED  89868049000                       # Cumulative time (in ticks) in various power states
system.cpu.icache.tags.tagsinuse           409.476166                       # Cycle average of tags in use
system.cpu.icache.tags.total_refs            10279958                       # Total number of references to valid blocks.
system.cpu.icache.tags.sampled_refs               737                       # Sample count of references to valid blocks.
system.cpu.icache.tags.avg_refs          13948.382632                       # Average number of references to valid blocks.
system.cpu.icache.tags.warmup_cycle             87500                       # Cycle when the warmup percentage was hit.
system.cpu.icache.tags.occ_blocks::.cpu.inst   409.476166                       # Average occupied blocks per requestor
system.cpu.icache.tags.occ_percent::.cpu.inst     0.399879                       # Average percentage of cache occupancy
system.cpu.icache.tags.occ_percent::total     0.399879                       # Average percentage of cache occupancy
system.cpu.icache.tags.occ_task_id_blocks::1024          506                       # Occupied blocks per task id
system.cpu.icache.tags.age_task_id_blocks_1024::3          107                       # Occupied blocks per task id
system.cpu.icache.tags.age_task_id_blocks_1024::4          399                       # Occupied blocks per task id
system.cpu.icache.tags.occ_task_id_percent::1024     0.494141                       # Percentage of cache occupancy per task id
system.cpu.icache.tags.tag_accesses          10280695                       # Number of tag accesses
system.cpu.icache.tags.data_accesses         10280695                       # Number of data accesses
system.cpu.icache.tags.power_state.pwrStateResidencyTicks::UNDEFINED  89868049000                       # Cumulative time (in ticks) in various power states
system.cpu.itb.instHits                             0                       # ITB inst hits
system.cpu.itb.instMisses                           0                       # ITB inst misses
system.cpu.itb.readHits                             0                       # DTB read hits
system.cpu.itb.readMisses                           0                       # DTB read misses
system.cpu.itb.writeHits                            0                       # DTB write hits
system.cpu.itb.writeMisses                          0                       # DTB write misses
system.cpu.itb.inserts                              0                       # Number of times an entry is inserted into the TLB
system.cpu.itb.flushTlb                             0                       # Number of times complete TLB was flushed
system.cpu.itb.flushTlbMva                          0                       # Number of times TLB was flushed by MVA
system.cpu.itb.flushTlbMvaAsid                      0                       # Number of times TLB was flushed by MVA & ASID
system.cpu.itb.flushTlbAsid                         0                       # Number of times TLB was flushed by ASID
system.cpu.itb.flushedEntries                       0                       # Number of entries that have been flushed from TLB
system.cpu.itb.alignFaults                          0                       # Number of TLB faults due to alignment restrictions
system.cpu.itb.prefetchFaults                       0                       # Number of TLB faults due to prefetch
system.cpu.itb.domainFaults                         0                       # Number of TLB faults due to domain restrictions
system.cpu.itb.permsFaults                          0                       # Number of TLB faults due to permissions restrictions
system.cpu.itb.readAccesses                         0                       # DTB read accesses
system.cpu.itb.writeAccesses                        0                       # DTB write accesses
system.cpu.itb.instAccesses                         0                       # ITB inst accesses
system.cpu.itb.hits                                 0                       # Total TLB (inst and data) hits
system.cpu.itb.misses                               0                       # Total TLB (inst and data) misses
system.cpu.itb.accesses                             0                       # Total TLB (inst and data) accesses
system.cpu.itb.stage2_mmu.stage2_tlb.instHits            0                       # ITB inst hits
system.cpu.itb.stage2_mmu.stage2_tlb.instMisses            0                       # ITB inst misses
system.cpu.itb.stage2_mmu.stage2_tlb.readHits            0                       # DTB read hits
system.cpu.itb.stage2_mmu.stage2_tlb.readMisses            0                       # DTB read misses
system.cpu.itb.stage2_mmu.stage2_tlb.writeHits            0                       # DTB write hits
system.cpu.itb.stage2_mmu.stage2_tlb.writeMisses            0                       # DTB write misses
system.cpu.itb.stage2_mmu.stage2_tlb.inserts            0                       # Number of times an entry is inserted into the TLB
system.cpu.itb.stage2_mmu.stage2_tlb.flushTlb            0                       # Number of times complete TLB was flushed
system.cpu.itb.stage2_mmu.stage2_tlb.flushTlbMva            0                       # Number of times TLB was flushed by MVA
system.cpu.itb.stage2_mmu.stage2_tlb.flushTlbMvaAsid            0                       # Number of times TLB was flushed by MVA & ASID
system.cpu.itb.stage2_mmu.stage2_tlb.flushTlbAsid            0                       # Number of times TLB was flushed by ASID
system.cpu.itb.stage2_mmu.stage2_tlb.flushedEntries            0                       # Number of entries that have been flushed from TLB
system.cpu.itb.stage2_mmu.stage2_tlb.alignFaults            0                       # Number of TLB faults due to alignment restrictions
system.cpu.itb.stage2_mmu.stage2_tlb.prefetchFaults            0                       # Number of TLB faults due to prefetch
system.cpu.itb.stage2_mmu.stage2_tlb.domainFaults            0                       # Number of TLB faults due to domain restrictions
system.cpu.itb.stage2_mmu.stage2_tlb.permsFaults            0                       # Number of TLB faults due to permissions restrictions
system.cpu.itb.stage2_mmu.stage2_tlb.readAccesses            0                       # DTB read accesses
system.cpu.itb.stage2_mmu.stage2_tlb.writeAccesses            0                       # DTB write accesses
system.cpu.itb.stage2_mmu.stage2_tlb.instAccesses            0                       # ITB inst accesses
system.cpu.itb.stage2_mmu.stage2_tlb.hits            0                       # Total TLB (inst and data) hits
system.cpu.itb.stage2_mmu.stage2_tlb.misses            0                       # Total TLB (inst and data) misses
system.cpu.itb.stage2_mmu.stage2_tlb.accesses            0                       # Total TLB (inst and data) accesses
system.cpu.itb.stage2_mmu.stage2_tlb.walker.walks            0                       # Table walker walks requested
system.cpu.itb.stage2_mmu.stage2_tlb.walker.requestOrigin_Requested::Data            0                       # Table walker requests started/completed, data/inst
system.cpu.itb.stage2_mmu.stage2_tlb.walker.requestOrigin_Requested::Inst            0                       # Table walker requests started/completed, data/inst
system.cpu.itb.stage2_mmu.stage2_tlb.walker.requestOrigin_Requested::total            0                       # Table walker requests started/completed, data/inst
system.cpu.itb.stage2_mmu.stage2_tlb.walker.requestOrigin_Completed::Data            0                       # Table walker requests started/completed, data/inst
system.cpu.itb.stage2_mmu.stage2_tlb.walker.requestOrigin_Completed::Inst            0                       # Table walker requests started/completed, data/inst
system.cpu.itb.stage2_mmu.stage2_tlb.walker.requestOrigin_Completed::total            0                       # Table walker requests started/completed, data/inst
system.cpu.itb.stage2_mmu.stage2_tlb.walker.requestOrigin::total            0                       # Table walker requests started/completed, data/inst
system.cpu.itb.stage2_mmu.stage2_tlb.walker.power_state.pwrStateResidencyTicks::UNDEFINED  89868049000                       # Cumulative time (in ticks) in various power states
system.cpu.itb.walker.walks                         0                       # Table walker walks requested
system.cpu.itb.walker.requestOrigin_Requested::Data            0                       # Table walker requests started/completed, data/inst
system.cpu.itb.walker.requestOrigin_Requested::Inst            0                       # Table walker requests started/completed, data/inst
system.cpu.itb.walker.requestOrigin_Requested::total            0                       # Table walker requests started/completed, data/inst
system.cpu.itb.walker.requestOrigin_Completed::Data            0                       # Table walker requests started/completed, data/inst
system.cpu.itb.walker.requestOrigin_Completed::Inst            0                       # Table walker requests started/completed, data/inst
system.cpu.itb.walker.requestOrigin_Completed::total            0                       # Table walker requests started/completed, data/inst
system.cpu.itb.walker.requestOrigin::total            0                       # Table walker requests started/completed, data/inst
system.cpu.itb.walker.power_state.pwrStateResidencyTicks::UNDEFINED  89868049000                       # Cumulative time (in ticks) in various power states
system.cpu.power_state.pwrStateResidencyTicks::ON  89868049000                       # Cumulative time (in ticks) in various power states
system.cpu.thread0.numInsts                 100000001                       # Number of Instructions committed
system.cpu.thread0.numOps                   100196356                       # Number of Ops committed
system.cpu.thread0.numMemRefs                       0                       # Number of Memory References
system.cpu_clk_domain.clock                       500                       # Clock period in ticks
system.cpu_voltage_domain.voltage                   1                       # Voltage in Volts
system.l2.demand_hits::.cpu.inst                   72                       # number of demand (read+write) hits
system.l2.demand_hits::.cpu.data              1088033                       # number of demand (read+write) hits
system.l2.demand_hits::total                  1088105                       # number of demand (read+write) hits
system.l2.overall_hits::.cpu.inst                  72                       # number of overall hits
system.l2.overall_hits::.cpu.data             1088033                       # number of overall hits
system.l2.overall_hits::total                 1088105                       # number of overall hits
system.l2.demand_misses::.cpu.inst                665                       # number of demand (read+write) misses
system.l2.demand_misses::.cpu.data             206742                       # number of demand (read+write) misses
system.l2.demand_misses::total                 207407                       # number of demand (read+write) misses
system.l2.overall_misses::.cpu.inst               665                       # number of overall misses
system.l2.overall_misses::.cpu.data            206742                       # number of overall misses
system.l2.overall_misses::total                207407                       # number of overall misses
system.l2.demand_miss_latency::.cpu.inst     50986500                       # number of demand (read+write) miss cycles
system.l2.demand_miss_latency::.cpu.data  17390058500                       # number of demand (read+write) miss cycles
system.l2.demand_miss_latency::total      17441045000                       # number of demand (read+write) miss cycles
system.l2.overall_miss_latency::.cpu.inst     50986500                       # number of overall miss cycles
system.l2.overall_miss_latency::.cpu.data  17390058500                       # number of overall miss cycles
system.l2.overall_miss_latency::total     17441045000                       # number of overall miss cycles
system.l2.demand_accesses::.cpu.inst              737                       # number of demand (read+write) accesses
system.l2.demand_accesses::.cpu.data          1294775                       # number of demand (read+write) accesses
system.l2.demand_accesses::total              1295512                       # number of demand (read+write) accesses
system.l2.overall_accesses::.cpu.inst             737                       # number of overall (read+write) accesses
system.l2.overall_accesses::.cpu.data         1294775                       # number of overall (read+write) accesses
system.l2.overall_accesses::total             1295512                       # number of overall (read+write) accesses
system.l2.demand_miss_rate::.cpu.inst        0.902307                       # miss rate for demand accesses
system.l2.demand_miss_rate::.cpu.data        0.159674                       # miss rate for demand accesses
system.l2.demand_miss_rate::total            0.160097                       # miss rate for demand accesses
system.l2.overall_miss_rate::.cpu.inst       0.902307                       # miss rate for overall accesses
system.l2.overall_miss_rate::.cpu.data       0.159674                       # miss rate for overall accesses
system.l2.overall_miss_rate::total           0.160097                       # miss rate for overall accesses
system.l2.demand_avg_miss_latency::.cpu.inst 76671.428571                       # average overall miss latency
system.l2.demand_avg_miss_latency::.cpu.data 84114.783160                       # average overall miss latency
system.l2.demand_avg_miss_latency::total 84090.917857                       # average overall miss latency
system.l2.overall_avg_miss_latency::.cpu.inst 76671.428571                       # average overall miss latency
system.l2.overall_avg_miss_latency::.cpu.data 84114.783160                       # average overall miss latency
system.l2.overall_avg_miss_latency::total 84090.917857                       # average overall miss latency
system.l2.blocked_cycles::no_mshrs                  0                       # number of cycles access was blocked
system.l2.blocked_cycles::no_targets                0                       # number of cycles access was blocked
system.l2.blocked::no_mshrs                         0                       # number of cycles access was blocked
system.l2.blocked::no_targets                       0                       # number of cycles access was blocked
system.l2.avg_blocked_cycles::no_mshrs            nan                       # average number of cycles each access was blocked
system.l2.avg_blocked_cycles::no_targets          nan                       # average number of cycles each access was blocked
system.l2.writebacks::.writebacks              113631                       # number of writebacks
system.l2.writebacks::total                    113631                       # number of writebacks
system.l2.demand_mshr_hits::.cpu.data               6                       # number of demand (read+write) MSHR hits
system.l2.demand_mshr_hits::total                   6                       # number of demand (read+write) MSHR hits
system.l2.overall_mshr_hits::.cpu.data              6                       # number of overall MSHR hits
system.l2.overall_mshr_hits::total                  6                       # number of overall MSHR hits
system.l2.demand_mshr_misses::.cpu.inst           665                       # number of demand (read+write) MSHR misses
system.l2.demand_mshr_misses::.cpu.data        206736                       # number of demand (read+write) MSHR misses
system.l2.demand_mshr_misses::total            207401                       # number of demand (read+write) MSHR misses
system.l2.overall_mshr_misses::.cpu.inst          665                       # number of overall MSHR misses
system.l2.overall_mshr_misses::.cpu.data       206736                       # number of overall MSHR misses
system.l2.overall_mshr_misses::total           207401                       # number of overall MSHR misses
system.l2.demand_mshr_miss_latency::.cpu.inst     44336500                       # number of demand (read+write) MSHR miss cycles
system.l2.demand_mshr_miss_latency::.cpu.data  15322321500                       # number of demand (read+write) MSHR miss cycles
system.l2.demand_mshr_miss_latency::total  15366658000                       # number of demand (read+write) MSHR miss cycles
system.l2.overall_mshr_miss_latency::.cpu.inst     44336500                       # number of overall MSHR miss cycles
system.l2.overall_mshr_miss_latency::.cpu.data  15322321500                       # number of overall MSHR miss cycles
system.l2.overall_mshr_miss_latency::total  15366658000                       # number of overall MSHR miss cycles
system.l2.demand_mshr_miss_rate::.cpu.inst     0.902307                       # mshr miss rate for demand accesses
system.l2.demand_mshr_miss_rate::.cpu.data     0.159669                       # mshr miss rate for demand accesses
system.l2.demand_mshr_miss_rate::total       0.160092                       # mshr miss rate for demand accesses
system.l2.overall_mshr_miss_rate::.cpu.inst     0.902307                       # mshr miss rate for overall accesses
system.l2.overall_mshr_miss_rate::.cpu.data     0.159669                       # mshr miss rate for overall accesses
system.l2.overall_mshr_miss_rate::total      0.160092                       # mshr miss rate for overall accesses
system.l2.demand_avg_mshr_miss_latency::.cpu.inst 66671.428571                       # average overall mshr miss latency
system.l2.demand_avg_mshr_miss_latency::.cpu.data 74115.400801                       # average overall mshr miss latency
system.l2.demand_avg_mshr_miss_latency::total 74091.532828                       # average overall mshr miss latency
system.l2.overall_avg_mshr_miss_latency::.cpu.inst 66671.428571                       # average overall mshr miss latency
system.l2.overall_avg_mshr_miss_latency::.cpu.data 74115.400801                       # average overall mshr miss latency
system.l2.overall_avg_mshr_miss_latency::total 74091.532828                       # average overall mshr miss latency
system.l2.replacements                         174716                       # number of replacements
system.l2.WritebackDirty_hits::.writebacks      1173756                       # number of WritebackDirty hits
system.l2.WritebackDirty_hits::total          1173756                       # number of WritebackDirty hits
system.l2.WritebackDirty_accesses::.writebacks      1173756                       # number of WritebackDirty accesses(hits+misses)
system.l2.WritebackDirty_accesses::total      1173756                       # number of WritebackDirty accesses(hits+misses)
system.l2.WritebackClean_hits::.writebacks          222                       # number of WritebackClean hits
system.l2.WritebackClean_hits::total              222                       # number of WritebackClean hits
system.l2.WritebackClean_accesses::.writebacks          222                       # number of WritebackClean accesses(hits+misses)
system.l2.WritebackClean_accesses::total          222                       # number of WritebackClean accesses(hits+misses)
system.l2.ReadExReq_hits::.cpu.data            323805                       # number of ReadExReq hits
system.l2.ReadExReq_hits::total                323805                       # number of ReadExReq hits
system.l2.ReadExReq_misses::.cpu.data          137423                       # number of ReadExReq misses
system.l2.ReadExReq_misses::total              137423                       # number of ReadExReq misses
system.l2.ReadExReq_miss_latency::.cpu.data  11911629000                       # number of ReadExReq miss cycles
system.l2.ReadExReq_miss_latency::total   11911629000                       # number of ReadExReq miss cycles
system.l2.ReadExReq_accesses::.cpu.data        461228                       # number of ReadExReq accesses(hits+misses)
system.l2.ReadExReq_accesses::total            461228                       # number of ReadExReq accesses(hits+misses)
system.l2.ReadExReq_miss_rate::.cpu.data     0.297950                       # miss rate for ReadExReq accesses
system.l2.ReadExReq_miss_rate::total         0.297950                       # miss rate for ReadExReq accesses
system.l2.ReadExReq_avg_miss_latency::.cpu.data 86678.569090                       # average ReadExReq miss latency
system.l2.ReadExReq_avg_miss_latency::total 86678.569090                       # average ReadExReq miss latency
system.l2.ReadExReq_mshr_misses::.cpu.data       137423                       # number of ReadExReq MSHR misses
system.l2.ReadExReq_mshr_misses::total         137423                       # number of ReadExReq MSHR misses
system.l2.ReadExReq_mshr_miss_latency::.cpu.data  10537399000                       # number of ReadExReq MSHR miss cycles
system.l2.ReadExReq_mshr_miss_latency::total  10537399000                       # number of ReadExReq MSHR miss cycles
system.l2.ReadExReq_mshr_miss_rate::.cpu.data     0.297950                       # mshr miss rate for ReadExReq accesses
system.l2.ReadExReq_mshr_miss_rate::total     0.297950                       # mshr miss rate for ReadExReq accesses
system.l2.ReadExReq_avg_mshr_miss_latency::.cpu.data 76678.569090                       # average ReadExReq mshr miss latency
system.l2.ReadExReq_avg_mshr_miss_latency::total 76678.569090                       # average ReadExReq mshr miss latency
system.l2.ReadCleanReq_hits::.cpu.inst             72                       # number of ReadCleanReq hits
system.l2.ReadCleanReq_hits::total                 72                       # number of ReadCleanReq hits
system.l2.ReadCleanReq_misses::.cpu.inst          665                       # number of ReadCleanReq misses
system.l2.ReadCleanReq_misses::total              665                       # number of ReadCleanReq misses
system.l2.ReadCleanReq_miss_latency::.cpu.inst     50986500                       # number of ReadCleanReq miss cycles
system.l2.ReadCleanReq_miss_latency::total     50986500                       # number of ReadCleanReq miss cycles
system.l2.ReadCleanReq_accesses::.cpu.inst          737                       # number of ReadCleanReq accesses(hits+misses)
system.l2.ReadCleanReq_accesses::total            737                       # number of ReadCleanReq accesses(hits+misses)
system.l2.ReadCleanReq_miss_rate::.cpu.inst     0.902307                       # miss rate for ReadCleanReq accesses
system.l2.ReadCleanReq_miss_rate::total      0.902307                       # miss rate for ReadCleanReq accesses
system.l2.ReadCleanReq_avg_miss_latency::.cpu.inst 76671.428571                       # average ReadCleanReq miss latency
system.l2.ReadCleanReq_avg_miss_latency::total 76671.428571                       # average ReadCleanReq miss latency
system.l2.ReadCleanReq_mshr_misses::.cpu.inst          665                       # number of ReadCleanReq MSHR misses
system.l2.ReadCleanReq_mshr_misses::total          665                       # number of ReadCleanReq MSHR misses
system.l2.ReadCleanReq_mshr_miss_latency::.cpu.inst     44336500                       # number of ReadCleanReq MSHR miss cycles
system.l2.ReadCleanReq_mshr_miss_latency::total     44336500                       # number of ReadCleanReq MSHR miss cycles
system.l2.ReadCleanReq_mshr_miss_rate::.cpu.inst     0.902307                       # mshr miss rate for ReadCleanReq accesses
system.l2.ReadCleanReq_mshr_miss_rate::total     0.902307                       # mshr miss rate for ReadCleanReq accesses
system.l2.ReadCleanReq_avg_mshr_miss_latency::.cpu.inst 66671.428571                       # average ReadCleanReq mshr miss latency
system.l2.ReadCleanReq_avg_mshr_miss_latency::total 66671.428571                       # average ReadCleanReq mshr miss latency
system.l2.ReadSharedReq_hits::.cpu.data        764228                       # number of ReadSharedReq hits
system.l2.ReadSharedReq_hits::total            764228                       # number of ReadSharedReq hits
system.l2.ReadSharedReq_misses::.cpu.data        69319                       # number of ReadSharedReq misses
system.l2.ReadSharedReq_misses::total           69319                       # number of ReadSharedReq misses
system.l2.ReadSharedReq_miss_latency::.cpu.data   5478429500                       # number of ReadSharedReq miss cycles
system.l2.ReadSharedReq_miss_latency::total   5478429500                       # number of ReadSharedReq miss cycles
system.l2.ReadSharedReq_accesses::.cpu.data       833547                       # number of ReadSharedReq accesses(hits+misses)
system.l2.ReadSharedReq_accesses::total        833547                       # number of ReadSharedReq accesses(hits+misses)
system.l2.ReadSharedReq_miss_rate::.cpu.data     0.083161                       # miss rate for ReadSharedReq accesses
system.l2.ReadSharedReq_miss_rate::total     0.083161                       # miss rate for ReadSharedReq accesses
system.l2.ReadSharedReq_avg_miss_latency::.cpu.data 79032.148473                       # average ReadSharedReq miss latency
system.l2.ReadSharedReq_avg_miss_latency::total 79032.148473                       # average ReadSharedReq miss latency
system.l2.ReadSharedReq_mshr_hits::.cpu.data            6                       # number of ReadSharedReq MSHR hits
system.l2.ReadSharedReq_mshr_hits::total            6                       # number of ReadSharedReq MSHR hits
system.l2.ReadSharedReq_mshr_misses::.cpu.data        69313                       # number of ReadSharedReq MSHR misses
system.l2.ReadSharedReq_mshr_misses::total        69313                       # number of ReadSharedReq MSHR misses
system.l2.ReadSharedReq_mshr_miss_latency::.cpu.data   4784922500                       # number of ReadSharedReq MSHR miss cycles
system.l2.ReadSharedReq_mshr_miss_latency::total   4784922500                       # number of ReadSharedReq MSHR miss cycles
system.l2.ReadSharedReq_mshr_miss_rate::.cpu.data     0.083154                       # mshr miss rate for ReadSharedReq accesses
system.l2.ReadSharedReq_mshr_miss_rate::total     0.083154                       # mshr miss rate for ReadSharedReq accesses
system.l2.ReadSharedReq_avg_mshr_miss_latency::.cpu.data 69033.550705                       # average ReadSharedReq mshr miss latency
system.l2.ReadSharedReq_avg_mshr_miss_latency::total 69033.550705                       # average ReadSharedReq mshr miss latency
system.l2.power_state.pwrStateResidencyTicks::UNDEFINED  89868049000                       # Cumulative time (in ticks) in various power states
system.l2.tags.tagsinuse                 31957.036215                       # Cycle average of tags in use
system.l2.tags.total_refs                     2587511                       # Total number of references to valid blocks.
system.l2.tags.sampled_refs                    207484                       # Sample count of references to valid blocks.
system.l2.tags.avg_refs                     12.470894                       # Average number of references to valid blocks.
system.l2.tags.warmup_cycle                     77000                       # Cycle when the warmup percentage was hit.
system.l2.tags.occ_blocks::.writebacks      26.067662                       # Average occupied blocks per requestor
system.l2.tags.occ_blocks::.cpu.inst        80.983458                       # Average occupied blocks per requestor
system.l2.tags.occ_blocks::.cpu.data     31849.985095                       # Average occupied blocks per requestor
system.l2.tags.occ_percent::.writebacks      0.000796                       # Average percentage of cache occupancy
system.l2.tags.occ_percent::.cpu.inst        0.002471                       # Average percentage of cache occupancy
system.l2.tags.occ_percent::.cpu.data        0.971984                       # Average percentage of cache occupancy
system.l2.tags.occ_percent::total            0.975251                       # Average percentage of cache occupancy
system.l2.tags.occ_task_id_blocks::1024         32768                       # Occupied blocks per task id
system.l2.tags.age_task_id_blocks_1024::0            2                       # Occupied blocks per task id
system.l2.tags.age_task_id_blocks_1024::1          140                       # Occupied blocks per task id
system.l2.tags.age_task_id_blocks_1024::2         1241                       # Occupied blocks per task id
system.l2.tags.age_task_id_blocks_1024::3        13713                       # Occupied blocks per task id
system.l2.tags.age_task_id_blocks_1024::4        17672                       # Occupied blocks per task id
system.l2.tags.occ_task_id_percent::1024            1                       # Percentage of cache occupancy per task id
system.l2.tags.tag_accesses                   5382518                       # Number of tag accesses
system.l2.tags.data_accesses                  5382518                       # Number of data accesses
system.l2.tags.power_state.pwrStateResidencyTicks::UNDEFINED  89868049000                       # Cumulative time (in ticks) in various power states
system.mem_ctrls.avgPriority_.writebacks::samples    113629.00                       # Average QoS priority value for accepted requests
system.mem_ctrls.avgPriority_.cpu.inst::samples       665.00                       # Average QoS priority value for accepted requests
system.mem_ctrls.avgPriority_.cpu.data::samples    206650.00                       # Average QoS priority value for accepted requests
system.mem_ctrls.priorityMinLatency      0.000000018750                       # per QoS priority minimum request to response latency (s)
system.mem_ctrls.priorityMaxLatency      0.007389522500                       # per QoS priority maximum request to response latency (s)
system.mem_ctrls.numReadWriteTurnArounds         6772                       # Number of turnarounds from READ to WRITE
system.mem_ctrls.numWriteReadTurnArounds         6772                       # Number of turnarounds from WRITE to READ
system.mem_ctrls.numStayReadState              540887                       # Number of times bus staying in READ state
system.mem_ctrls.numStayWriteState             106985                       # Number of times bus staying in WRITE state
system.mem_ctrls.readReqs                      207401                       # Number of read requests accepted
system.mem_ctrls.writeReqs                     113631                       # Number of write requests accepted
system.mem_ctrls.readBursts                    207401                       # Number of controller read bursts, including those serviced by the write queue
system.mem_ctrls.writeBursts                   113631                       # Number of controller write bursts, including those merged in the write queue
system.mem_ctrls.servicedByWrQ                     86                       # Number of controller read bursts serviced by the write queue
system.mem_ctrls.mergedWrBursts                     2                       # Number of controller write bursts merged with an existing one
system.mem_ctrls.neitherReadNorWriteReqs            0                       # Number of requests that are neither read nor write
system.mem_ctrls.avgRdQLen                       1.07                       # Average read queue length when enqueuing
system.mem_ctrls.avgWrQLen                      25.30                       # Average write queue length when enqueuing
system.mem_ctrls.numRdRetry                         0                       # Number of times read queue was full causing retry
system.mem_ctrls.numWrRetry                         0                       # Number of times write queue was full causing retry
system.mem_ctrls.readPktSize::0                     0                       # Read request sizes (log2)
system.mem_ctrls.readPktSize::1                     0                       # Read request sizes (log2)
system.mem_ctrls.readPktSize::2                     0                       # Read request sizes (log2)
system.mem_ctrls.readPktSize::3                     0                       # Read request sizes (log2)
system.mem_ctrls.readPktSize::4                     0                       # Read request sizes (log2)
system.mem_ctrls.readPktSize::5                     0                       # Read request sizes (log2)
system.mem_ctrls.readPktSize::6                207401                       # Read request sizes (log2)
system.mem_ctrls.writePktSize::0                    0                       # Write request sizes (log2)
system.mem_ctrls.writePktSize::1                    0                       # Write request sizes (log2)
system.mem_ctrls.writePktSize::2                    0                       # Write request sizes (log2)
system.mem_ctrls.writePktSize::3                    0                       # Write request sizes (log2)
system.mem_ctrls.writePktSize::4                    0                       # Write request sizes (log2)
system.mem_ctrls.writePktSize::5                    0                       # Write request sizes (log2)
system.mem_ctrls.writePktSize::6               113631                       # Write request sizes (log2)
system.mem_ctrls.rdQLenPdf::0                  148223                       # What read queue length does an incoming req see
system.mem_ctrls.rdQLenPdf::1                   57763                       # What read queue length does an incoming req see
system.mem_ctrls.rdQLenPdf::2                    1069                       # What read queue length does an incoming req see
system.mem_ctrls.rdQLenPdf::3                     259                       # What read queue length does an incoming req see
system.mem_ctrls.rdQLenPdf::4                       1                       # What read queue length does an incoming req see
system.mem_ctrls.rdQLenPdf::5                       0                       # What read queue length does an incoming req see
system.mem_ctrls.rdQLenPdf::6                       0                       # What read queue length does an incoming req see
system.mem_ctrls.rdQLenPdf::7                       0                       # What read queue length does an incoming req see
system.mem_ctrls.rdQLenPdf::8                       0                       # What read queue length does an incoming req see
system.mem_ctrls.rdQLenPdf::9                       0                       # What read queue length does an incoming req see
system.mem_ctrls.rdQLenPdf::10                      0                       # What read queue length does an incoming req see
system.mem_ctrls.rdQLenPdf::11                      0                       # What read queue length does an incoming req see
[...]
system.mem_ctrls.dram.bw_write::.writebacks     80922910                       # Write bandwidth from this memory (bytes/s)
system.mem_ctrls.dram.bw_write::total        80922910                       # Write bandwidth from this memory (bytes/s)
system.mem_ctrls.dram.bw_total::.writebacks     80922910                       # Total bandwidth to/from this memory (bytes/s)
system.mem_ctrls.dram.bw_total::.cpu.inst       473583                       # Total bandwidth to/from this memory (bytes/s)
system.mem_ctrls.dram.bw_total::.cpu.data    147228121                       # Total bandwidth to/from this memory (bytes/s)
system.mem_ctrls.dram.bw_total::total       228624614                       # Total bandwidth to/from this memory (bytes/s)
system.mem_ctrls.dram.readBursts               207315                       # Number of DRAM read bursts
system.mem_ctrls.dram.writeBursts              113609                       # Number of DRAM write bursts
system.mem_ctrls.dram.perBankRdBursts::0        13148                       # Per bank write bursts
system.mem_ctrls.dram.perBankRdBursts::1        13129                       # Per bank write bursts
system.mem_ctrls.dram.perBankRdBursts::2        12993                       # Per bank write bursts
system.mem_ctrls.dram.perBankRdBursts::3        13013                       # Per bank write bursts
system.mem_ctrls.dram.perBankRdBursts::4        13167                       # Per bank write bursts
system.mem_ctrls.dram.perBankRdBursts::5        12906                       # Per bank write bursts
system.mem_ctrls.dram.perBankRdBursts::6        13063                       # Per bank write bursts
system.mem_ctrls.dram.perBankRdBursts::7        12788                       # Per bank write bursts
system.mem_ctrls.dram.perBankRdBursts::8        12924                       # Per bank write bursts
system.mem_ctrls.dram.perBankRdBursts::9        12489                       # Per bank write bursts
system.mem_ctrls.dram.perBankRdBursts::10        12777                       # Per bank write bursts
system.mem_ctrls.dram.perBankRdBursts::11        12987                       # Per bank write bursts
system.mem_ctrls.dram.perBankRdBursts::12        13035                       # Per bank write bursts
system.mem_ctrls.dram.perBankRdBursts::13        12965                       # Per bank write bursts
system.mem_ctrls.dram.perBankRdBursts::14        13038                       # Per bank write bursts
system.mem_ctrls.dram.perBankRdBursts::15        12893                       # Per bank write bursts
system.mem_ctrls.dram.perBankWrBursts::0         7177                       # Per bank write bursts
system.mem_ctrls.dram.perBankWrBursts::1         7226                       # Per bank write bursts
system.mem_ctrls.dram.perBankWrBursts::2         7089                       # Per bank write bursts
system.mem_ctrls.dram.perBankWrBursts::3         7094                       # Per bank write bursts
system.mem_ctrls.dram.perBankWrBursts::4         7376                       # Per bank write bursts
system.mem_ctrls.dram.perBankWrBursts::5         7226                       # Per bank write bursts
system.mem_ctrls.dram.perBankWrBursts::6         7331                       # Per bank write bursts
system.mem_ctrls.dram.perBankWrBursts::7         7019                       # Per bank write bursts
system.mem_ctrls.dram.perBankWrBursts::8         7054                       # Per bank write bursts
system.mem_ctrls.dram.perBankWrBursts::9         6643                       # Per bank write bursts
system.mem_ctrls.dram.perBankWrBursts::10         6940                       # Per bank write bursts
system.mem_ctrls.dram.perBankWrBursts::11         7101                       # Per bank write bursts
system.mem_ctrls.dram.perBankWrBursts::12         7115                       # Per bank write bursts
system.mem_ctrls.dram.perBankWrBursts::13         7000                       # Per bank write bursts
system.mem_ctrls.dram.perBankWrBursts::14         7102                       # Per bank write bursts
system.mem_ctrls.dram.perBankWrBursts::15         7116                       # Per bank write bursts
system.mem_ctrls.dram.totQLat              2931606500                       # Total ticks spent queuing
system.mem_ctrls.dram.totBusLat            1036575000                       # Total ticks spent in databus transfers
system.mem_ctrls.dram.totMemAccLat         6818762750                       # Total ticks spent from burst creation until serviced by the DRAM
system.mem_ctrls.dram.avgQLat                14140.83                       # Average queueing delay per DRAM burst
system.mem_ctrls.dram.avgBusLat               5000.00                       # Average bus latency per DRAM burst
system.mem_ctrls.dram.avgMemAccLat           32890.83                       # Average memory access latency per DRAM burst
system.mem_ctrls.dram.readRowHits              140919                       # Number of row buffer hits during reads
system.mem_ctrls.dram.writeRowHits              71895                       # Number of row buffer hits during writes
system.mem_ctrls.dram.readRowHitRate            67.97                       # Row buffer hit rate for reads
system.mem_ctrls.dram.writeRowHitRate           63.28                       # Row buffer hit rate for writes
system.mem_ctrls.dram.bytesPerActivate::samples       108110                       # Bytes accessed per row activation
system.mem_ctrls.dram.bytesPerActivate::mean   189.983683                       # Bytes accessed per row activation
system.mem_ctrls.dram.bytesPerActivate::gmean   110.601472                       # Bytes accessed per row activation
system.mem_ctrls.dram.bytesPerActivate::stdev   257.648482                       # Bytes accessed per row activation
system.mem_ctrls.dram.bytesPerActivate::0-127        71936     66.54%     66.54% # Bytes accessed per row activation
system.mem_ctrls.dram.bytesPerActivate::128-255        14612     13.52%     80.06% # Bytes accessed per row activation
system.mem_ctrls.dram.bytesPerActivate::256-383         2664      2.46%     82.52% # Bytes accessed per row activation
system.mem_ctrls.dram.bytesPerActivate::384-511         1385      1.28%     83.80% # Bytes accessed per row activation
system.mem_ctrls.dram.bytesPerActivate::512-639         9925      9.18%     92.98% # Bytes accessed per row activation
system.mem_ctrls.dram.bytesPerActivate::640-767          426      0.39%     93.38% # Bytes accessed per row activation
system.mem_ctrls.dram.bytesPerActivate::768-895          476      0.44%     93.82% # Bytes accessed per row activation
system.mem_ctrls.dram.bytesPerActivate::896-1023          492      0.46%     94.27% # Bytes accessed per row activation
system.mem_ctrls.dram.bytesPerActivate::1024-1151         6194      5.73%    100.00% # Bytes accessed per row activation
system.mem_ctrls.dram.bytesPerActivate::total       108110                       # Bytes accessed per row activation
system.mem_ctrls.dram.bytesRead              13268160                       # Total number of bytes read from DRAM
system.mem_ctrls.dram.bytesWritten            7270976                       # Total number of bytes written to DRAM
system.mem_ctrls.dram.avgRdBW              147.640459                       # Average DRAM read bandwidth in MiBytes/s
system.mem_ctrls.dram.avgWrBW               80.907242                       # Average DRAM write bandwidth in MiBytes/s
system.mem_ctrls.dram.peakBW                 12800.00                       # Theoretical peak bandwidth in MiByte/s
system.mem_ctrls.dram.busUtil                    1.79                       # Data bus utilization in percentage
system.mem_ctrls.dram.busUtilRead                1.15                       # Data bus utilization in percentage for reads
system.mem_ctrls.dram.busUtilWrite               0.63                       # Data bus utilization in percentage for writes
system.mem_ctrls.dram.pageHitRate               66.31                       # Row buffer hit rate, read and write combined
system.mem_ctrls.dram.power_state.pwrStateResidencyTicks::UNDEFINED  89868049000                       # Cumulative time (in ticks) in various power states
system.mem_ctrls.dram.rank0.actEnergy       390015360                       # Energy for activate commands per rank (pJ)
system.mem_ctrls.dram.rank0.preEnergy       207298080                       # Energy for precharge commands per rank (pJ)
system.mem_ctrls.dram.rank0.readEnergy      744037980                       # Energy for read commands per rank (pJ)
system.mem_ctrls.dram.rank0.writeEnergy     300348360                       # Energy for write commands per rank (pJ)
system.mem_ctrls.dram.rank0.refreshEnergy 7093560240.000001                       # Energy for refresh commands per rank (pJ)
system.mem_ctrls.dram.rank0.actBackEnergy  24143483160                       # Energy for active background per rank (pJ)
system.mem_ctrls.dram.rank0.preBackEnergy  14177976960                       # Energy for precharge background per rank (pJ)
system.mem_ctrls.dram.rank0.actPowerDownEnergy            0                       # Energy for active power-down per rank (pJ)
system.mem_ctrls.dram.rank0.prePowerDownEnergy            0                       # Energy for precharge power-down per rank (pJ)
system.mem_ctrls.dram.rank0.selfRefreshEnergy            0                       # Energy for self refresh per rank (pJ)
system.mem_ctrls.dram.rank0.totalEnergy   47056720140                       # Total energy per rank (pJ)
system.mem_ctrls.dram.rank0.averagePower   523.620137                       # Core power per rank (mW)
system.mem_ctrls.dram.rank0.totalIdleTime            0                       # Total Idle time Per DRAM Rank
system.mem_ctrls.dram.rank0.pwrStateTime::IDLE  36611971750                       # Time in different power states
system.mem_ctrls.dram.rank0.pwrStateTime::REF   3000660000                       # Time in different power states
system.mem_ctrls.dram.rank0.pwrStateTime::SREF            0                       # Time in different power states
system.mem_ctrls.dram.rank0.pwrStateTime::PRE_PDN            0                       # Time in different power states
system.mem_ctrls.dram.rank0.pwrStateTime::ACT  50255417250                       # Time in different power states
system.mem_ctrls.dram.rank0.pwrStateTime::ACT_PDN            0                       # Time in different power states
system.mem_ctrls.dram.rank1.actEnergy       381890040                       # Energy for activate commands per rank (pJ)
system.mem_ctrls.dram.rank1.preEnergy       202979370                       # Energy for precharge commands per rank (pJ)
system.mem_ctrls.dram.rank1.readEnergy      736191120                       # Energy for read commands per rank (pJ)
system.mem_ctrls.dram.rank1.writeEnergy     292690620                       # Energy for write commands per rank (pJ)
system.mem_ctrls.dram.rank1.refreshEnergy 7093560240.000001                       # Energy for refresh commands per rank (pJ)
system.mem_ctrls.dram.rank1.actBackEnergy  23519302380                       # Energy for active background per rank (pJ)
system.mem_ctrls.dram.rank1.preBackEnergy  14703602880                       # Energy for precharge background per rank (pJ)
system.mem_ctrls.dram.rank1.actPowerDownEnergy            0                       # Energy for active power-down per rank (pJ)
system.mem_ctrls.dram.rank1.prePowerDownEnergy            0                       # Energy for precharge power-down per rank (pJ)
system.mem_ctrls.dram.rank1.selfRefreshEnergy            0                       # Energy for self refresh per rank (pJ)
system.mem_ctrls.dram.rank1.totalEnergy   46930216650                       # Total energy per rank (pJ)
system.mem_ctrls.dram.rank1.averagePower   522.212479                       # Core power per rank (mW)
system.mem_ctrls.dram.rank1.totalIdleTime            0                       # Total Idle time Per DRAM Rank
system.mem_ctrls.dram.rank1.pwrStateTime::IDLE  37981370750                       # Time in different power states
system.mem_ctrls.dram.rank1.pwrStateTime::REF   3000660000                       # Time in different power states
system.mem_ctrls.dram.rank1.pwrStateTime::SREF            0                       # Time in different power states
system.mem_ctrls.dram.rank1.pwrStateTime::PRE_PDN            0                       # Time in different power states
system.mem_ctrls.dram.rank1.pwrStateTime::ACT  48886018250                       # Time in different power states
system.mem_ctrls.dram.rank1.pwrStateTime::ACT_PDN            0                       # Time in different power states
system.mem_ctrls.power_state.pwrStateResidencyTicks::UNDEFINED  89868049000                       # Cumulative time (in ticks) in various power states
system.membus.trans_dist::ReadResp              69978                       # Transaction distribution
system.membus.trans_dist::WritebackDirty       113631                       # Transaction distribution
system.membus.trans_dist::CleanEvict            60527                       # Transaction distribution
system.membus.trans_dist::ReadExReq            137423                       # Transaction distribution
system.membus.trans_dist::ReadExResp           137423                       # Transaction distribution
system.membus.trans_dist::ReadSharedReq         69978                       # Transaction distribution
system.membus.pkt_count_system.l2.mem_side_port::system.mem_ctrls.port       588960                       # Packet count per connected requestor and responder (bytes)
system.membus.pkt_count::total                 588960                       # Packet count per connected requestor and responder (bytes)
system.membus.pkt_size_system.l2.mem_side_port::system.mem_ctrls.port     20546048                       # Cumulative packet size per connected requestor and responder (bytes)
system.membus.pkt_size::total                20546048                       # Cumulative packet size per connected requestor and responder (bytes)
system.membus.snoops                                0                       # Total snoops (count)
system.membus.snoopTraffic                          0                       # Total snoop traffic (bytes)
system.membus.snoop_fanout::samples            207401                       # Request fanout histogram
system.membus.snoop_fanout::mean                    0                       # Request fanout histogram
system.membus.snoop_fanout::stdev                   0                       # Request fanout histogram
system.membus.snoop_fanout::underflows              0      0.00%      0.00% # Request fanout histogram
system.membus.snoop_fanout::0                  207401    100.00%    100.00% # Request fanout histogram
system.membus.snoop_fanout::1                       0      0.00%    100.00% # Request fanout histogram
system.membus.snoop_fanout::overflows               0      0.00%    100.00% # Request fanout histogram
system.membus.snoop_fanout::min_value               0                       # Request fanout histogram
system.membus.snoop_fanout::max_value               0                       # Request fanout histogram
system.membus.snoop_fanout::total              207401                       # Request fanout histogram
system.membus.power_state.pwrStateResidencyTicks::UNDEFINED  89868049000                       # Cumulative time (in ticks) in various power states
system.membus.reqLayer0.occupancy           875499500                       # Layer occupancy (ticks)
system.membus.reqLayer0.utilization               1.0                       # Layer utilization (%)
system.membus.respLayer1.occupancy         1117250000                       # Layer occupancy (ticks)
system.membus.respLayer1.utilization              1.2                       # Layer utilization (%)
system.tol2bus.trans_dist::ReadResp            834284                       # Transaction distribution
system.tol2bus.trans_dist::WritebackDirty      1287387                       # Transaction distribution
system.tol2bus.trans_dist::WritebackClean          231                       # Transaction distribution
system.tol2bus.trans_dist::CleanEvict          181848                       # Transaction distribution
system.tol2bus.trans_dist::ReadExReq           461228                       # Transaction distribution
system.tol2bus.trans_dist::ReadExResp          461228                       # Transaction distribution
system.tol2bus.trans_dist::ReadCleanReq           737                       # Transaction distribution
system.tol2bus.trans_dist::ReadSharedReq       833547                       # Transaction distribution
system.tol2bus.pkt_count_system.cpu.icache.mem_side_port::system.l2.cpu_side_port         1705                       # Packet count per connected requestor and responder (bytes)
system.tol2bus.pkt_count_system.cpu.dcache.mem_side_port::system.l2.cpu_side_port      3884069                       # Packet count per connected requestor and responder (bytes)
system.tol2bus.pkt_count::total               3885774                       # Packet count per connected requestor and responder (bytes)
system.tol2bus.pkt_size_system.cpu.icache.mem_side_port::system.l2.cpu_side_port        61952                       # Cumulative packet size per connected requestor and responder (bytes)
system.tol2bus.pkt_size_system.cpu.dcache.mem_side_port::system.l2.cpu_side_port    157985984                       # Cumulative packet size per connected requestor and responder (bytes)
system.tol2bus.pkt_size::total              158047936                       # Cumulative packet size per connected requestor and responder (bytes)
system.tol2bus.snoops                          174716                       # Total snoops (count)
system.tol2bus.snoopTraffic                   7272384                       # Total snoop traffic (bytes)
system.tol2bus.snoop_fanout::samples          1470228                       # Request fanout histogram
system.tol2bus.snoop_fanout::mean            0.002247                       # Request fanout histogram
system.tol2bus.snoop_fanout::stdev           0.047352                       # Request fanout histogram
system.tol2bus.snoop_fanout::underflows             0      0.00%      0.00% # Request fanout histogram
system.tol2bus.snoop_fanout::0                1466924     99.78%     99.78% # Request fanout histogram
system.tol2bus.snoop_fanout::1                   3304      0.22%    100.00% # Request fanout histogram
system.tol2bus.snoop_fanout::2                      0      0.00%    100.00% # Request fanout histogram
system.tol2bus.snoop_fanout::overflows              0      0.00%    100.00% # Request fanout histogram
system.tol2bus.snoop_fanout::min_value              0                       # Request fanout histogram
system.tol2bus.snoop_fanout::max_value              1                       # Request fanout histogram
system.tol2bus.snoop_fanout::total            1470228                       # Request fanout histogram
system.tol2bus.power_state.pwrStateResidencyTicks::UNDEFINED  89868049000                       # Cumulative time (in ticks) in various power states
system.tol2bus.reqLayer0.occupancy         2469118000                       # Layer occupancy (ticks)
system.tol2bus.reqLayer0.utilization              2.7                       # Layer utilization (%)
system.tol2bus.respLayer0.occupancy           1105500                       # Layer occupancy (ticks)
system.tol2bus.respLayer0.utilization             0.0                       # Layer utilization (%)
system.tol2bus.respLayer1.occupancy        1942165494                       # Layer occupancy (ticks)
system.tol2bus.respLayer1.utilization             2.2                       # Layer utilization (%)
system.voltage_domain.voltage                       1                       # Voltage in Volts

---------- End Simulation Statistics   ----------
