
---------- Begin Simulation Statistics ----------
final_tick                                57822215500                       # Number of ticks from beginning of simulation (restored from checkpoints and never reset)
host_inst_rate                                 181442                       # Simulator instruction rate (inst/s)
host_mem_usage                                 652520                       # Number of bytes of host memory used
host_op_rate                                   198554                       # Simulator op (including micro ops) rate (op/s)
host_seconds                                   551.14                       # Real time elapsed on the host
host_tick_rate                              104913549                       # Simulator tick rate (ticks/s)
sim_freq                                 1000000000000                       # Frequency of simulated ticks
sim_insts                                   100000001                       # Number of instructions simulated
sim_ops                                     109431274                       # Number of ops (including micro ops) simulated
sim_seconds                                  0.057822                       # Number of seconds simulated
sim_ticks                                 57822215500                       # Number of ticks simulated
system.cpu.committedInsts                   100000001                       # Number of instructions committed
system.cpu.committedOps                     109431274                       # Number of ops (including micro ops) committed
system.cpu.cpi                               1.156444                       # CPI: cycles per instruction
system.cpu.discardedOps                        377931                       # Number of ops (including micro ops) which were discarded before commit
system.cpu.idleCycles                         5642056                       # Total number of cycles that the object has spent stopped
system.cpu.ipc                               0.864720                       # IPC: instructions per cycle
system.cpu.numCycles                        115644431                       # number of cpu cycles simulated
system.cpu.numFetchSuspends                         0                       # Number of times Execute suspended instruction fetching
system.cpu.numWorkItemsCompleted                    0                       # number of work items this cpu completed
system.cpu.numWorkItemsStarted                      0                       # number of work items this cpu started
system.cpu.op_class_0::No_OpClass                   0      0.00%      0.00% # Class of committed instruction
system.cpu.op_class_0::IntAlu                72954993     66.67%     66.67% # Class of committed instruction
system.cpu.op_class_0::IntMult                 568364      0.52%     67.19% # Class of committed instruction
system.cpu.op_class_0::IntDiv                       0      0.00%     67.19% # Class of committed instruction
system.cpu.op_class_0::FloatAdd                     0      0.00%     67.19% # Class of committed instruction
system.cpu.op_class_0::FloatCmp                     0      0.00%     67.19% # Class of committed instruction
system.cpu.op_class_0::FloatCvt                     0      0.00%     67.19% # Class of committed instruction
system.cpu.op_class_0::FloatMult                    0      0.00%     67.19% # Class of committed instruction
system.cpu.op_class_0::FloatMultAcc                 0      0.00%     67.19% # Class of committed instruction
system.cpu.op_class_0::FloatDiv                     0      0.00%     67.19% # Class of committed instruction
system.cpu.op_class_0::FloatMisc                    0      0.00%     67.19% # Class of committed instruction
system.cpu.op_class_0::FloatSqrt                    0      0.00%     67.19% # Class of committed instruction
system.cpu.op_class_0::SimdAdd                 241336      0.22%     67.41% # Class of committed instruction
system.cpu.op_class_0::SimdAddAcc                   0      0.00%     67.41% # Class of committed instruction
system.cpu.op_class_0::SimdAlu                 154628      0.14%     67.55% # Class of committed instruction
system.cpu.op_class_0::SimdCmp                 120668      0.11%     67.66% # Class of committed instruction
system.cpu.op_class_0::SimdCvt                      0      0.00%     67.66% # Class of committed instruction
system.cpu.op_class_0::SimdMisc                 44543      0.04%     67.70% # Class of committed instruction
system.cpu.op_class_0::SimdMult                     0      0.00%     67.70% # Class of committed instruction
system.cpu.op_class_0::SimdMultAcc                  0      0.00%     67.70% # Class of committed instruction
system.cpu.op_class_0::SimdShift                    0      0.00%     67.70% # Class of committed instruction
system.cpu.op_class_0::SimdShiftAcc                 0      0.00%     67.70% # Class of committed instruction
system.cpu.op_class_0::SimdDiv                      0      0.00%     67.70% # Class of committed instruction
system.cpu.op_class_0::SimdSqrt                     0      0.00%     67.70% # Class of committed instruction
system.cpu.op_class_0::SimdFloatAdd                 0      0.00%     67.70% # Class of committed instruction
system.cpu.op_class_0::SimdFloatAlu                 0      0.00%     67.70% # Class of committed instruction
system.cpu.op_class_0::SimdFloatCmp                 0      0.00%     67.70% # Class of committed instruction
system.cpu.op_class_0::SimdFloatCvt                 0      0.00%     67.70% # Class of committed instruction
system.cpu.op_class_0::SimdFloatDiv                 0      0.00%     67.70% # Class of committed instruction
system.cpu.op_class_0::SimdFloatMisc           166417      0.15%     67.85% # Class of committed instruction
system.cpu.op_class_0::SimdFloatMult                0      0.00%     67.85% # Class of committed instruction
system.cpu.op_class_0::SimdFloatMultAcc             0      0.00%     67.85% # Class of committed instruction
system.cpu.op_class_0::SimdFloatSqrt                0      0.00%     67.85% # Class of committed instruction
system.cpu.op_class_0::SimdReduceAdd                0      0.00%     67.85% # Class of committed instruction
system.cpu.op_class_0::SimdReduceAlu                0      0.00%     67.85% # Class of committed instruction
system.cpu.op_class_0::SimdReduceCmp                0      0.00%     67.85% # Class of committed instruction
system.cpu.op_class_0::SimdFloatReduceAdd            0      0.00%     67.85% # Class of committed instruction
system.cpu.op_class_0::SimdFloatReduceCmp            0      0.00%     67.85% # Class of committed instruction
system.cpu.op_class_0::SimdAes                      0      0.00%     67.85% # Class of committed instruction
system.cpu.op_class_0::SimdAesMix                   0      0.00%     67.85% # Class of committed instruction
system.cpu.op_class_0::SimdSha1Hash                 0      0.00%     67.85% # Class of committed instruction
system.cpu.op_class_0::SimdSha1Hash2                0      0.00%     67.85% # Class of committed instruction
system.cpu.op_class_0::SimdSha256Hash               0      0.00%     67.85% # Class of committed instruction
system.cpu.op_class_0::SimdSha256Hash2              0      0.00%     67.85% # Class of committed instruction
system.cpu.op_class_0::SimdShaSigma2                0      0.00%     67.85% # Class of committed instruction
system.cpu.op_class_0::SimdShaSigma3                0      0.00%     67.85% # Class of committed instruction
system.cpu.op_class_0::SimdPredAlu                  0      0.00%     67.85% # Class of committed instruction
system.cpu.op_class_0::MemRead               20645996     18.87%     86.72% # Class of committed instruction
system.cpu.op_class_0::MemWrite              14534329     13.28%    100.00% # Class of committed instruction
system.cpu.op_class_0::FloatMemRead                 0      0.00%    100.00% # Class of committed instruction
system.cpu.op_class_0::FloatMemWrite                0      0.00%    100.00% # Class of committed instruction
system.cpu.op_class_0::IprAccess                    0      0.00%    100.00% # Class of committed instruction
system.cpu.op_class_0::InstPrefetch                 0      0.00%    100.00% # Class of committed instruction
system.cpu.op_class_0::total                109431274                       # Class of committed instruction
system.cpu.tickCycles                       110002375                       # Number of cycles that the object actually ticked
system.cpu.workload.numSyscalls                    87                       # Number of system calls
system.membus.snoop_filter.hit_multi_requests            0                       # Number of requests hitting in the snoop filter with multiple (>1) holders of the requested data.
system.membus.snoop_filter.hit_multi_snoops            0                       # Number of snoops hitting in the snoop filter with multiple (>1) holders of the requested data.
system.membus.snoop_filter.hit_single_requests        37515                       # Number of requests hitting in the snoop filter with a single holder of the requested data.
system.membus.snoop_filter.hit_single_snoops            0                       # Number of snoops hitting in the snoop filter with a single holder of the requested data.
system.membus.snoop_filter.tot_requests         83673                       # Total number of requests made to the snoop filter.
system.membus.snoop_filter.tot_snoops               0                       # Total number of snoops made to the snoop filter.
system.tol2bus.snoop_filter.hit_multi_requests         2085                       # Number of requests hitting in the snoop filter with multiple (>1) holders of the requested data.
system.tol2bus.snoop_filter.hit_multi_snoops            0                       # Number of snoops hitting in the snoop filter with multiple (>1) holders of the requested data.
system.tol2bus.snoop_filter.hit_single_requests        90223                       # Number of requests hitting in the snoop filter with a single holder of the requested data.
system.tol2bus.snoop_filter.hit_single_snoops          454                       # Number of snoops hitting in the snoop filter with a single holder of the requested data.
system.tol2bus.snoop_filter.tot_requests       181406                       # Total number of requests made to the snoop filter.
system.tol2bus.snoop_filter.tot_snoops            454                       # Total number of snoops made to the snoop filter.
system.clk_domain.clock                          1000                       # Clock period in ticks
system.cpu.branchPred.lookups                20361178                       # Number of BP lookups
system.cpu.branchPred.condPredicted          16298377                       # Number of conditional branches predicted
system.cpu.branchPred.condIncorrect             53712                       # Number of conditional branches incorrect
system.cpu.branchPred.BTBLookups              8737689                       # Number of BTB lookups
system.cpu.branchPred.BTBHits                 8736289                       # Number of BTB hits
system.cpu.branchPred.BTBHitPct             99.983977                       # BTB Hit Percentage
system.cpu.branchPred.RASUsed                 1050557                       # Number of times the RAS was used to get a target.
system.cpu.branchPred.RASIncorrect                326                       # Number of incorrect RAS predictions.
system.cpu.branchPred.indirectLookups          434276                       # Number of indirect predictor lookups.
system.cpu.branchPred.indirectHits             300028                       # Number of indirect target hits.
system.cpu.branchPred.indirectMisses           134248                       # Number of indirect misses.
system.cpu.branchPred.indirectMispredicted         1039                       # Number of mispredicted indirect branches.
system.cpu.dcache.demand_hits::.cpu.data     35563282                       # number of demand (read+write) hits
system.cpu.dcache.demand_hits::total         35563282                       # number of demand (read+write) hits
system.cpu.dcache.overall_hits::.cpu.data     35566527                       # number of overall hits
system.cpu.dcache.overall_hits::total        35566527                       # number of overall hits
system.cpu.dcache.demand_misses::.cpu.data       122828                       # number of demand (read+write) misses
system.cpu.dcache.demand_misses::total         122828                       # number of demand (read+write) misses
system.cpu.dcache.overall_misses::.cpu.data       122944                       # number of overall misses
system.cpu.dcache.overall_misses::total        122944                       # number of overall misses
system.cpu.dcache.demand_miss_latency::.cpu.data   5785563000                       # number of demand (read+write) miss cycles
system.cpu.dcache.demand_miss_latency::total   5785563000                       # number of demand (read+write) miss cycles
system.cpu.dcache.overall_miss_latency::.cpu.data   5785563000                       # number of overall miss cycles
system.cpu.dcache.overall_miss_latency::total   5785563000                       # number of overall miss cycles
system.cpu.dcache.demand_accesses::.cpu.data     35686110                       # number of demand (read+write) accesses
system.cpu.dcache.demand_accesses::total     35686110                       # number of demand (read+write) accesses
system.cpu.dcache.overall_accesses::.cpu.data     35689471                       # number of overall (read+write) accesses
system.cpu.dcache.overall_accesses::total     35689471                       # number of overall (read+write) accesses
system.cpu.dcache.demand_miss_rate::.cpu.data     0.003442                       # miss rate for demand accesses
system.cpu.dcache.demand_miss_rate::total     0.003442                       # miss rate for demand accesses
system.cpu.dcache.overall_miss_rate::.cpu.data     0.003445                       # miss rate for overall accesses
system.cpu.dcache.overall_miss_rate::total     0.003445                       # miss rate for overall accesses
system.cpu.dcache.demand_avg_miss_latency::.cpu.data 47102.965122                       # average overall miss latency
system.cpu.dcache.demand_avg_miss_latency::total 47102.965122                       # average overall miss latency
system.cpu.dcache.overall_avg_miss_latency::.cpu.data 47058.522579                       # average overall miss latency
system.cpu.dcache.overall_avg_miss_latency::total 47058.522579                       # average overall miss latency
system.cpu.dcache.blocked_cycles::no_mshrs            0                       # number of cycles access was blocked
system.cpu.dcache.blocked_cycles::no_targets            0                       # number of cycles access was blocked
system.cpu.dcache.blocked::no_mshrs                 0                       # number of cycles access was blocked
system.cpu.dcache.blocked::no_targets               0                       # number of cycles access was blocked
system.cpu.dcache.avg_blocked_cycles::no_mshrs          nan                       # average number of cycles each access was blocked
system.cpu.dcache.avg_blocked_cycles::no_targets          nan                       # average number of cycles each access was blocked
system.cpu.dcache.writebacks::.writebacks        72167                       # number of writebacks
system.cpu.dcache.writebacks::total             72167                       # number of writebacks
system.cpu.dcache.demand_mshr_hits::.cpu.data        32551                       # number of demand (read+write) MSHR hits
system.cpu.dcache.demand_mshr_hits::total        32551                       # number of demand (read+write) MSHR hits
system.cpu.dcache.overall_mshr_hits::.cpu.data        32551                       # number of overall MSHR hits
system.cpu.dcache.overall_mshr_hits::total        32551                       # number of overall MSHR hits
system.cpu.dcache.demand_mshr_misses::.cpu.data        90277                       # number of demand (read+write) MSHR misses
system.cpu.dcache.demand_mshr_misses::total        90277                       # number of demand (read+write) MSHR misses
system.cpu.dcache.overall_mshr_misses::.cpu.data        90388                       # number of overall MSHR misses
system.cpu.dcache.overall_mshr_misses::total        90388                       # number of overall MSHR misses
system.cpu.dcache.demand_mshr_miss_latency::.cpu.data   4424963000                       # number of demand (read+write) MSHR miss cycles
system.cpu.dcache.demand_mshr_miss_latency::total   4424963000                       # number of demand (read+write) MSHR miss cycles
system.cpu.dcache.overall_mshr_miss_latency::.cpu.data   4427315500                       # number of overall MSHR miss cycles
system.cpu.dcache.overall_mshr_miss_latency::total   4427315500                       # number of overall MSHR miss cycles
system.cpu.dcache.demand_mshr_miss_rate::.cpu.data     0.002530                       # mshr miss rate for demand accesses
system.cpu.dcache.demand_mshr_miss_rate::total     0.002530                       # mshr miss rate for demand accesses
system.cpu.dcache.overall_mshr_miss_rate::.cpu.data     0.002533                       # mshr miss rate for overall accesses
system.cpu.dcache.overall_mshr_miss_rate::total     0.002533                       # mshr miss rate for overall accesses
system.cpu.dcache.demand_avg_mshr_miss_latency::.cpu.data 49015.397056                       # average overall mshr miss latency
system.cpu.dcache.demand_avg_mshr_miss_latency::total 49015.397056                       # average overall mshr miss latency
system.cpu.dcache.overall_avg_mshr_miss_latency::.cpu.data 48981.230916                       # average overall mshr miss latency
system.cpu.dcache.overall_avg_mshr_miss_latency::total 48981.230916                       # average overall mshr miss latency
system.cpu.dcache.replacements                  89905                       # number of replacements
system.cpu.dcache.ReadReq_hits::.cpu.data     21379608                       # number of ReadReq hits
system.cpu.dcache.ReadReq_hits::total        21379608                       # number of ReadReq hits
system.cpu.dcache.ReadReq_misses::.cpu.data        52249                       # number of ReadReq misses
system.cpu.dcache.ReadReq_misses::total         52249                       # number of ReadReq misses
system.cpu.dcache.ReadReq_miss_latency::.cpu.data   1261205000                       # number of ReadReq miss cycles
system.cpu.dcache.ReadReq_miss_latency::total   1261205000                       # number of ReadReq miss cycles
system.cpu.dcache.ReadReq_accesses::.cpu.data     21431857                       # number of ReadReq accesses(hits+misses)
system.cpu.dcache.ReadReq_accesses::total     21431857                       # number of ReadReq accesses(hits+misses)
system.cpu.dcache.ReadReq_miss_rate::.cpu.data     0.002438                       # miss rate for ReadReq accesses
system.cpu.dcache.ReadReq_miss_rate::total     0.002438                       # miss rate for ReadReq accesses
system.cpu.dcache.ReadReq_avg_miss_latency::.cpu.data 24138.356715                       # average ReadReq miss latency
system.cpu.dcache.ReadReq_avg_miss_latency::total 24138.356715                       # average ReadReq miss latency
system.cpu.dcache.ReadReq_mshr_hits::.cpu.data         9447                       # number of ReadReq MSHR hits
system.cpu.dcache.ReadReq_mshr_hits::total         9447                       # number of ReadReq MSHR hits
system.cpu.dcache.ReadReq_mshr_misses::.cpu.data        42802                       # number of ReadReq MSHR misses
system.cpu.dcache.ReadReq_mshr_misses::total        42802                       # number of ReadReq MSHR misses
system.cpu.dcache.ReadReq_mshr_miss_latency::.cpu.data   1075707000                       # number of ReadReq MSHR miss cycles
system.cpu.dcache.ReadReq_mshr_miss_latency::total   1075707000                       # number of ReadReq MSHR miss cycles
system.cpu.dcache.ReadReq_mshr_miss_rate::.cpu.data     0.001997                       # mshr miss rate for ReadReq accesses
system.cpu.dcache.ReadReq_mshr_miss_rate::total     0.001997                       # mshr miss rate for ReadReq accesses
system.cpu.dcache.ReadReq_avg_mshr_miss_latency::.cpu.data 25132.166721                       # average ReadReq mshr miss latency
system.cpu.dcache.ReadReq_avg_mshr_miss_latency::total 25132.166721                       # average ReadReq mshr miss latency
system.cpu.dcache.WriteReq_hits::.cpu.data     14183674                       # number of WriteReq hits
system.cpu.dcache.WriteReq_hits::total       14183674                       # number of WriteReq hits
system.cpu.dcache.WriteReq_misses::.cpu.data        70579                       # number of WriteReq misses
system.cpu.dcache.WriteReq_misses::total        70579                       # number of WriteReq misses
system.cpu.dcache.WriteReq_miss_latency::.cpu.data   4524358000                       # number of WriteReq miss cycles
system.cpu.dcache.WriteReq_miss_latency::total   4524358000                       # number of WriteReq miss cycles
system.cpu.dcache.WriteReq_accesses::.cpu.data     14254253                       # number of WriteReq accesses(hits+misses)
system.cpu.dcache.WriteReq_accesses::total     14254253                       # number of WriteReq accesses(hits+misses)
system.cpu.dcache.WriteReq_miss_rate::.cpu.data     0.004951                       # miss rate for WriteReq accesses
system.cpu.dcache.WriteReq_miss_rate::total     0.004951                       # miss rate for WriteReq accesses
system.cpu.dcache.WriteReq_avg_miss_latency::.cpu.data 64103.458536                       # average WriteReq miss latency
system.cpu.dcache.WriteReq_avg_miss_latency::total 64103.458536                       # average WriteReq miss latency
system.cpu.dcache.WriteReq_mshr_hits::.cpu.data        23104                       # number of WriteReq MSHR hits
system.cpu.dcache.WriteReq_mshr_hits::total        23104                       # number of WriteReq MSHR hits
system.cpu.dcache.WriteReq_mshr_misses::.cpu.data        47475                       # number of WriteReq MSHR misses
system.cpu.dcache.WriteReq_mshr_misses::total        47475                       # number of WriteReq MSHR misses
system.cpu.dcache.WriteReq_mshr_miss_latency::.cpu.data   3349256000                       # number of WriteReq MSHR miss cycles
system.cpu.dcache.WriteReq_mshr_miss_latency::total   3349256000                       # number of WriteReq MSHR miss cycles
system.cpu.dcache.WriteReq_mshr_miss_rate::.cpu.data     0.003331                       # mshr miss rate for WriteReq accesses
system.cpu.dcache.WriteReq_mshr_miss_rate::total     0.003331                       # mshr miss rate for WriteReq accesses
system.cpu.dcache.WriteReq_avg_mshr_miss_latency::.cpu.data 70547.783044                       # average WriteReq mshr miss latency
system.cpu.dcache.WriteReq_avg_mshr_miss_latency::total 70547.783044                       # average WriteReq mshr miss latency
system.cpu.dcache.SoftPFReq_hits::.cpu.data         3245                       # number of SoftPFReq hits
system.cpu.dcache.SoftPFReq_hits::total          3245                       # number of SoftPFReq hits
system.cpu.dcache.SoftPFReq_misses::.cpu.data          116                       # number of SoftPFReq misses
system.cpu.dcache.SoftPFReq_misses::total          116                       # number of SoftPFReq misses
system.cpu.dcache.SoftPFReq_accesses::.cpu.data         3361                       # number of SoftPFReq accesses(hits+misses)
system.cpu.dcache.SoftPFReq_accesses::total         3361                       # number of SoftPFReq accesses(hits+misses)
system.cpu.dcache.SoftPFReq_miss_rate::.cpu.data     0.034514                       # miss rate for SoftPFReq accesses
system.cpu.dcache.SoftPFReq_miss_rate::total     0.034514                       # miss rate for SoftPFReq accesses
system.cpu.dcache.SoftPFReq_mshr_misses::.cpu.data          111                       # number of SoftPFReq MSHR misses
system.cpu.dcache.SoftPFReq_mshr_misses::total          111                       # number of SoftPFReq MSHR misses
system.cpu.dcache.SoftPFReq_mshr_miss_latency::.cpu.data      2352500                       # number of SoftPFReq MSHR miss cycles
system.cpu.dcache.SoftPFReq_mshr_miss_latency::total      2352500                       # number of SoftPFReq MSHR miss cycles
system.cpu.dcache.SoftPFReq_mshr_miss_rate::.cpu.data     0.033026                       # mshr miss rate for SoftPFReq accesses
system.cpu.dcache.SoftPFReq_mshr_miss_rate::total     0.033026                       # mshr miss rate for SoftPFReq accesses
system.cpu.dcache.SoftPFReq_avg_mshr_miss_latency::.cpu.data 21193.693694                       # average SoftPFReq mshr miss latency
system.cpu.dcache.SoftPFReq_avg_mshr_miss_latency::total 21193.693694                       # average SoftPFReq mshr miss latency
system.cpu.dcache.LoadLockedReq_hits::.cpu.data        89077                       # number of LoadLockedReq hits
system.cpu.dcache.LoadLockedReq_hits::total        89077                       # number of LoadLockedReq hits
system.cpu.dcache.LoadLockedReq_misses::.cpu.data           29                       # number of LoadLockedReq misses
system.cpu.dcache.LoadLockedReq_misses::total           29                       # number of LoadLockedReq misses
system.cpu.dcache.LoadLockedReq_miss_latency::.cpu.data       801000                       # number of LoadLockedReq miss cycles
system.cpu.dcache.LoadLockedReq_miss_latency::total       801000                       # number of LoadLockedReq miss cycles
system.cpu.dcache.LoadLockedReq_accesses::.cpu.data        89106                       # number of LoadLockedReq accesses(hits+misses)
system.cpu.dcache.LoadLockedReq_accesses::total        89106                       # number of LoadLockedReq accesses(hits+misses)
system.cpu.dcache.LoadLockedReq_miss_rate::.cpu.data     0.000325                       # miss rate for LoadLockedReq accesses
system.cpu.dcache.LoadLockedReq_miss_rate::total     0.000325                       # miss rate for LoadLockedReq accesses
system.cpu.dcache.LoadLockedReq_avg_miss_latency::.cpu.data 27620.689655                       # average LoadLockedReq miss latency
system.cpu.dcache.LoadLockedReq_avg_miss_latency::total 27620.689655                       # average LoadLockedReq miss latency
system.cpu.dcache.LoadLockedReq_mshr_misses::.cpu.data           29                       # number of LoadLockedReq MSHR misses
system.cpu.dcache.LoadLockedReq_mshr_misses::total           29                       # number of LoadLockedReq MSHR misses
system.cpu.dcache.LoadLockedReq_mshr_miss_latency::.cpu.data       772000                       # number of LoadLockedReq MSHR miss cycles
system.cpu.dcache.LoadLockedReq_mshr_miss_latency::total       772000                       # number of LoadLockedReq MSHR miss cycles
system.cpu.dcache.LoadLockedReq_mshr_miss_rate::.cpu.data     0.000325                       # mshr miss rate for LoadLockedReq accesses
system.cpu.dcache.LoadLockedReq_mshr_miss_rate::total     0.000325                       # mshr miss rate for LoadLockedReq accesses
system.cpu.dcache.LoadLockedReq_avg_mshr_miss_latency::.cpu.data 26620.689655                       # average LoadLockedReq mshr miss latency
system.cpu.dcache.LoadLockedReq_avg_mshr_miss_latency::total 26620.689655                       # average LoadLockedReq mshr miss latency
system.cpu.dcache.StoreCondReq_hits::.cpu.data        89080                       # number of StoreCondReq hits
system.cpu.dcache.StoreCondReq_hits::total        89080                       # number of StoreCondReq hits
system.cpu.dcache.StoreCondReq_accesses::.cpu.data        89080                       # number of StoreCondReq accesses(hits+misses)
system.cpu.dcache.StoreCondReq_accesses::total        89080                       # number of StoreCondReq accesses(hits+misses)
system.cpu.dcache.power_state.pwrStateResidencyTicks::UNDEFINED  57822215500                       # Cumulative time (in ticks) in various power states
system.cpu.dcache.tags.tagsinuse           510.950934                       # Cycle average of tags in use
system.cpu.dcache.tags.total_refs            35835101                       # Total number of references to valid blocks.
system.cpu.dcache.tags.sampled_refs             90417                       # Sample count of references to valid blocks.
system.cpu.dcache.tags.avg_refs            396.331453                       # Average number of references to valid blocks.
system.cpu.dcache.tags.warmup_cycle            176500                       # Cycle when the warmup percentage was hit.
system.cpu.dcache.tags.occ_blocks::.cpu.data   510.950934                       # Average occupied blocks per requestor
system.cpu.dcache.tags.occ_percent::.cpu.data     0.997951                       # Average percentage of cache occupancy
system.cpu.dcache.tags.occ_percent::total     0.997951                       # Average percentage of cache occupancy
system.cpu.dcache.tags.occ_task_id_blocks::1024          512                       # Occupied blocks per task id
system.cpu.dcache.tags.age_task_id_blocks_1024::0            7                       # Occupied blocks per task id
system.cpu.dcache.tags.age_task_id_blocks_1024::1           64                       # Occupied blocks per task id
system.cpu.dcache.tags.age_task_id_blocks_1024::2          383                       # Occupied blocks per task id
system.cpu.dcache.tags.age_task_id_blocks_1024::3           58                       # Occupied blocks per task id
system.cpu.dcache.tags.occ_task_id_percent::1024            1                       # Percentage of cache occupancy per task id
system.cpu.dcache.tags.tag_accesses          35958074                       # Number of tag accesses
system.cpu.dcache.tags.data_accesses         35958074                       # Number of data accesses
system.cpu.dcache.tags.power_state.pwrStateResidencyTicks::UNDEFINED  57822215500                       # Cumulative time (in ticks) in various power states
system.cpu.dtb.instHits                             0                       # ITB inst hits
system.cpu.dtb.instMisses                           0                       # ITB inst misses
system.cpu.dtb.readHits                             0                       # DTB read hits
system.cpu.dtb.readMisses                           0                       # DTB read misses
system.cpu.dtb.writeHits                            0                       # DTB write hits
system.cpu.dtb.writeMisses                          0                       # DTB write misses
system.cpu.dtb.inserts                              0                       # Number of times an entry is inserted into the TLB
system.cpu.dtb.flushTlb                             0                       # Number of times complete TLB was flushed
system.cpu.dtb.flushTlbMva                          0                       # Number of times TLB was flushed by MVA
system.cpu.dtb.flushTlbMvaAsid                      0                       # Number of times TLB was flushed by MVA & ASID
system.cpu.dtb.flushTlbAsid                         0                       # Number of times TLB was flushed by ASID
system.cpu.dtb.flushedEntries                       0                       # Number of entries that have been flushed from TLB
system.cpu.dtb.alignFaults                          0                       # Number of TLB faults due to alignment restrictions
system.cpu.dtb.prefetchFaults                       0                       # Number of TLB faults due to prefetch
system.cpu.dtb.domainFaults                         0                       # Number of TLB faults due to domain restrictions
system.cpu.dtb.permsFaults                          0                       # Number of TLB faults due to permissions restrictions
system.cpu.dtb.readAccesses                         0                       # DTB read accesses
system.cpu.dtb.writeAccesses                        0                       # DTB write accesses
system.cpu.dtb.instAccesses                         0                       # ITB inst accesses
system.cpu.dtb.hits                                 0                       # Total TLB (inst and data) hits
system.cpu.dtb.misses                               0                       # Total TLB (inst and data) misses
system.cpu.dtb.accesses                             0                       # Total TLB (inst and data) accesses
system.cpu.dtb.stage2_mmu.stage2_tlb.instHits            0                       # ITB inst hits
system.cpu.dtb.stage2_mmu.stage2_tlb.instMisses            0                       # ITB inst misses
system.cpu.dtb.stage2_mmu.stage2_tlb.readHits            0                       # DTB read hits
system.cpu.dtb.stage2_mmu.stage2_tlb.readMisses            0                       # DTB read misses
system.cpu.dtb.stage2_mmu.stage2_tlb.writeHits            0                       # DTB write hits
system.cpu.dtb.stage2_mmu.stage2_tlb.writeMisses            0                       # DTB write misses
system.cpu.dtb.stage2_mmu.stage2_tlb.inserts            0                       # Number of times an entry is inserted into the TLB
system.cpu.dtb.stage2_mmu.stage2_tlb.flushTlb            0                       # Number of times complete TLB was flushed
system.cpu.dtb.stage2_mmu.stage2_tlb.flushTlbMva            0                       # Number of times TLB was flushed by MVA
system.cpu.dtb.stage2_mmu.stage2_tlb.flushTlbMvaAsid            0                       # Number of times TLB was flushed by MVA & ASID
system.cpu.dtb.stage2_mmu.stage2_tlb.flushTlbAsid            0                       # Number of times TLB was flushed by ASID
system.cpu.dtb.stage2_mmu.stage2_tlb.flushedEntries            0                       # Number of entries that have been flushed from TLB
system.cpu.dtb.stage2_mmu.stage2_tlb.alignFaults            0                       # Number of TLB faults due to alignment restrictions
system.cpu.dtb.stage2_mmu.stage2_tlb.prefetchFaults            0                       # Number of TLB faults due to prefetch
system.cpu.dtb.stage2_mmu.stage2_tlb.domainFaults            0                       # Number of TLB faults due to domain restrictions
system.cpu.dtb.stage2_mmu.stage2_tlb.permsFaults            0                       # Number of TLB faults due to permissions restrictions
system.cpu.dtb.stage2_mmu.stage2_tlb.readAccesses            0                       # DTB read accesses
system.cpu.dtb.stage2_mmu.stage2_tlb.writeAccesses            0                       # DTB write accesses
system.cpu.dtb.stage2_mmu.stage2_tlb.instAccesses            0                       # ITB inst accesses
system.cpu.dtb.stage2_mmu.stage2_tlb.hits            0                       # Total TLB (inst and data) hits
system.cpu.dtb.stage2_mmu.stage2_tlb.misses            0                       # Total TLB (inst and data) misses
system.cpu.dtb.stage2_mmu.stage2_tlb.accesses            0                       # Total TLB (inst and data) accesses
system.cpu.dtb.stage2_mmu.stage2_tlb.walker.walks            0                       # Table walker walks requested
system.cpu.dtb.stage2_mmu.stage2_tlb.walker.requestOrigin_Requested::Data            0                       # Table walker requests started/completed, data/inst
system.cpu.dtb.stage2_mmu.stage2_tlb.walker.requestOrigin_Requested::Inst            0                       # Table walker requests started/completed, data/inst
system.cpu.dtb.stage2_mmu.stage2_tlb.walker.requestOrigin_Requested::total            0                       # Table walker requests started/completed, data/inst
system.cpu.dtb.stage2_mmu.stage2_tlb.walker.requestOrigin_Completed::Data            0                       # Table walker requests started/completed, data/inst
system.cpu.dtb.stage2_mmu.stage2_tlb.walker.requestOrigin_Completed::Inst            0                       # Table walker requests started/completed, data/inst
system.cpu.dtb.stage2_mmu.stage2_tlb.walker.requestOrigin_Completed::total            0                       # Table walker requests started/completed, data/inst
system.cpu.dtb.stage2_mmu.stage2_tlb.walker.requestOrigin::total            0                       # Table walker requests started/completed, data/inst
system.cpu.dtb.stage2_mmu.stage2_tlb.walker.power_state.pwrStateResidencyTicks::UNDEFINED  57822215500                       # Cumulative time (in ticks) in various power states
system.cpu.dtb.walker.walks                         0                       # Table walker walks requested
system.cpu.dtb.walker.requestOrigin_Requested::Data            0                       # Table walker requests started/completed, data/inst
system.cpu.dtb.walker.requestOrigin_Requested::Inst            0                       # Table walker requests started/completed, data/inst
system.cpu.dtb.walker.requestOrigin_Requested::total            0                       # Table walker requests started/completed, data/inst
system.cpu.dtb.walker.requestOrigin_Completed::Data            0                       # Table walker requests started/completed, data/inst
system.cpu.dtb.walker.requestOrigin_Completed::Inst            0                       # Table walker requests started/completed, data/inst
system.cpu.dtb.walker.requestOrigin_Completed::total            0                       # Table walker requests started/completed, data/inst
system.cpu.dtb.walker.requestOrigin::total            0                       # Table walker requests started/completed, data/inst
system.cpu.dtb.walker.power_state.pwrStateResidencyTicks::UNDEFINED  57822215500                       # Cumulative time (in ticks) in various power states
system.cpu.fetch2.intInstructions            49239890                       # Number of integer instructions successfully decoded
system.cpu.fetch2.fpInstructions                    0                       # Number of floating point instructions successfully decoded
system.cpu.fetch2.vecInstructions                   0                       # Number of SIMD instructions successfully decoded
system.cpu.fetch2.loadInstructions           17106747                       # Number of memory load instructions successfully decoded
system.cpu.fetch2.storeInstructions           9764217                       # Number of memory store instructions successfully decoded
system.cpu.fetch2.amoInstructions                   0                       # Number of memory atomic instructions successfully decoded
system.cpu.icache.demand_hits::.cpu.inst     28367550                       # number of demand (read+write) hits
system.cpu.icache.demand_hits::total         28367550                       # number of demand (read+write) hits
system.cpu.icache.overall_hits::.cpu.inst     28367550                       # number of overall hits
system.cpu.icache.overall_hits::total        28367550                       # number of overall hits
system.cpu.icache.demand_misses::.cpu.inst          770                       # number of demand (read+write) misses
system.cpu.icache.demand_misses::total            770                       # number of demand (read+write) misses
system.cpu.icache.overall_misses::.cpu.inst          770                       # number of overall misses
system.cpu.icache.overall_misses::total           770                       # number of overall misses
system.cpu.icache.demand_miss_latency::.cpu.inst     44165000                       # number of demand (read+write) miss cycles
system.cpu.icache.demand_miss_latency::total     44165000                       # number of demand (read+write) miss cycles
system.cpu.icache.overall_miss_latency::.cpu.inst     44165000                       # number of overall miss cycles
system.cpu.icache.overall_miss_latency::total     44165000                       # number of overall miss cycles
system.cpu.icache.demand_accesses::.cpu.inst     28368320                       # number of demand (read+write) accesses
system.cpu.icache.demand_accesses::total     28368320                       # number of demand (read+write) accesses
system.cpu.icache.overall_accesses::.cpu.inst     28368320                       # number of overall (read+write) accesses
system.cpu.icache.overall_accesses::total     28368320                       # number of overall (read+write) accesses
system.cpu.icache.demand_miss_rate::.cpu.inst     0.000027                       # miss rate for demand accesses
system.cpu.icache.demand_miss_rate::total     0.000027                       # miss rate for demand accesses
system.cpu.icache.overall_miss_rate::.cpu.inst     0.000027                       # miss rate for overall accesses
system.cpu.icache.overall_miss_rate::total     0.000027                       # miss rate for overall accesses
system.cpu.icache.demand_avg_miss_latency::.cpu.inst 57357.142857                       # average overall miss latency
system.cpu.icache.demand_avg_miss_latency::total 57357.142857                       # average overall miss latency
system.cpu.icache.overall_avg_miss_latency::.cpu.inst 57357.142857                       # average overall miss latency
system.cpu.icache.overall_avg_miss_latency::total 57357.142857                       # average overall miss latency
system.cpu.icache.blocked_cycles::no_mshrs            0                       # number of cycles access was blocked
system.cpu.icache.blocked_cycles::no_targets            0                       # number of cycles access was blocked
system.cpu.icache.blocked::no_mshrs                 0                       # number of cycles access was blocked
system.cpu.icache.blocked::no_targets               0                       # number of cycles access was blocked
system.cpu.icache.avg_blocked_cycles::no_mshrs          nan                       # average number of cycles each access was blocked
system.cpu.icache.avg_blocked_cycles::no_targets          nan                       # average number of cycles each access was blocked
system.cpu.icache.writebacks::.writebacks          314                       # number of writebacks
system.cpu.icache.writebacks::total               314                       # number of writebacks
system.cpu.icache.demand_mshr_misses::.cpu.inst          770                       # number of demand (read+write) MSHR misses
system.cpu.icache.demand_mshr_misses::total          770                       # number of demand (read+write) MSHR misses
system.cpu.icache.overall_mshr_misses::.cpu.inst          770                       # number of overall MSHR misses
system.cpu.icache.overall_mshr_misses::total          770                       # number of overall MSHR misses
system.cpu.icache.demand_mshr_miss_latency::.cpu.inst     43395000                       # number of demand (read+write) MSHR miss cycles
system.cpu.icache.demand_mshr_miss_latency::total     43395000                       # number of demand (read+write) MSHR miss cycles
system.cpu.icache.overall_mshr_miss_latency::.cpu.inst     43395000                       # number of overall MSHR miss cycles
system.cpu.icache.overall_mshr_miss_latency::total     43395000                       # number of overall MSHR miss cycles
system.cpu.icache.demand_mshr_miss_rate::.cpu.inst     0.000027                       # mshr miss rate for demand accesses
system.cpu.icache.demand_mshr_miss_rate::total     0.000027                       # mshr miss rate for demand accesses
system.cpu.icache.overall_mshr_miss_rate::.cpu.inst     0.000027                       # mshr miss rate for overall accesses
system.cpu.icache.overall_mshr_miss_rate::total     0.000027                       # mshr miss rate for overall accesses
system.cpu.icache.demand_avg_mshr_miss_latency::.cpu.inst 56357.142857                       # average overall mshr miss latency
system.cpu.icache.demand_avg_mshr_miss_latency::total 56357.142857                       # average overall mshr miss latency
system.cpu.icache.overall_avg_mshr_miss_latency::.cpu.inst 56357.142857                       # average overall mshr miss latency
system.cpu.icache.overall_avg_mshr_miss_latency::total 56357.142857                       # average overall mshr miss latency
system.cpu.icache.replacements                    314                       # number of replacements
system.cpu.icache.ReadReq_hits::.cpu.inst     28367550                       # number of ReadReq hits
system.cpu.icache.ReadReq_hits::total        28367550                       # number of ReadReq hits
system.cpu.icache.ReadReq_misses::.cpu.inst          770                       # number of ReadReq misses
system.cpu.icache.ReadReq_misses::total           770                       # number of ReadReq misses
system.cpu.icache.ReadReq_miss_latency::.cpu.inst     44165000                       # number of ReadReq miss cycles
system.cpu.icache.ReadReq_miss_latency::total     44165000                       # number of ReadReq miss cycles
system.cpu.icache.ReadReq_accesses::.cpu.inst     28368320                       # number of ReadReq accesses(hits+misses)
system.cpu.icache.ReadReq_accesses::total     28368320                       # number of ReadReq accesses(hits+misses)
system.cpu.icache.ReadReq_miss_rate::.cpu.inst     0.000027                       # miss rate for ReadReq accesses
system.cpu.icache.ReadReq_miss_rate::total     0.000027                       # miss rate for ReadReq accesses
system.cpu.icache.ReadReq_avg_miss_latency::.cpu.inst 57357.142857                       # average ReadReq miss latency
system.cpu.icache.ReadReq_avg_miss_latency::total 57357.142857                       # average ReadReq miss latency
system.cpu.icache.ReadReq_mshr_misses::.cpu.inst          770                       # number of ReadReq MSHR misses
system.cpu.icache.ReadReq_mshr_misses::total          770                       # number of ReadReq MSHR misses
system.cpu.icache.ReadReq_mshr_miss_latency::.cpu.inst     43395000                       # number of ReadReq MSHR miss cycles
system.cpu.icache.ReadReq_mshr_miss_latency::total     43395000                       # number of ReadReq MSHR miss cycles
system.cpu.icache.ReadReq_mshr_miss_rate::.cpu.inst     0.000027                       # mshr miss rate for ReadReq accesses
system.cpu.icache.ReadReq_mshr_miss_rate::total     0.000027                       # mshr miss rate for ReadReq accesses
system.cpu.icache.ReadReq_avg_mshr_miss_latency::.cpu.inst 56357.142857                       # average ReadReq mshr miss latency
system.cpu.icache.ReadReq_avg_mshr_miss_latency::total 56357.142857                       # average ReadReq mshr miss latency
system.cpu.icache.power_state.pwrStateResidencyTicks::UNDEFINED  57822215500                       # Cumulative time (in ticks) in various power states
system.cpu.icache.tags.tagsinuse           455.244041                       # Cycle average of tags in use
system.cpu.icache.tags.total_refs            28368320                       # Total number of references to valid blocks.
system.cpu.icache.tags.sampled_refs               770                       # Sample count of references to valid blocks.
system.cpu.icache.tags.avg_refs          36841.974026                       # Average number of references to valid blocks.
system.cpu.icache.tags.warmup_cycle             87500                       # Cycle when the warmup percentage was hit.
system.cpu.icache.tags.occ_blocks::.cpu.inst   455.244041                       # Average occupied blocks per requestor
system.cpu.icache.tags.occ_percent::.cpu.inst     0.444574                       # Average percentage of cache occupancy
system.cpu.icache.tags.occ_percent::total     0.444574                       # Average percentage of cache occupancy
system.cpu.icache.tags.occ_task_id_blocks::1024          456                       # Occupied blocks per task id
system.cpu.icache.tags.age_task_id_blocks_1024::2            1                       # Occupied blocks per task id
system.cpu.icache.tags.age_task_id_blocks_1024::4          455                       # Occupied blocks per task id
system.cpu.icache.tags.occ_task_id_percent::1024     0.445312                       # Percentage of cache occupancy per task id
system.cpu.icache.tags.tag_accesses          28369090                       # Number of tag accesses
system.cpu.icache.tags.data_accesses         28369090                       # Number of data accesses
system.cpu.icache.tags.power_state.pwrStateResidencyTicks::UNDEFINED  57822215500                       # Cumulative time (in ticks) in various power states
system.cpu.itb.instHits                             0                       # ITB inst hits
system.cpu.itb.instMisses                           0                       # ITB inst misses
system.cpu.itb.readHits                             0                       # DTB read hits
system.cpu.itb.readMisses                           0                       # DTB read misses
system.cpu.itb.writeHits                            0                       # DTB write hits
system.cpu.itb.writeMisses                          0                       # DTB write misses
system.cpu.itb.inserts                              0                       # Number of times an entry is inserted into the TLB
system.cpu.itb.flushTlb                             0                       # Number of times complete TLB was flushed
system.cpu.itb.flushTlbMva                          0                       # Number of times TLB was flushed by MVA
system.cpu.itb.flushTlbMvaAsid                      0                       # Number of times TLB was flushed by MVA & ASID
system.cpu.itb.flushTlbAsid                         0                       # Number of times TLB was flushed by ASID
system.cpu.itb.flushedEntries                       0                       # Number of entries that have been flushed from TLB
system.cpu.itb.alignFaults                          0                       # Number of TLB faults due to alignment restrictions
system.cpu.itb.prefetchFaults                       0                       # Number of TLB faults due to prefetch
system.cpu.itb.domainFaults                         0                       # Number of TLB faults due to domain restrictions
system.cpu.itb.permsFaults                          0                       # Number of TLB faults due to permissions restrictions
system.cpu.itb.readAccesses                         0                       # DTB read accesses
system.cpu.itb.writeAccesses                        0                       # DTB write accesses
system.cpu.itb.instAccesses                         0                       # ITB inst accesses
system.cpu.itb.hits                                 0                       # Total TLB (inst and data) hits
system.cpu.itb.misses                               0                       # Total TLB (inst and data) misses
system.cpu.itb.accesses                             0                       # Total TLB (inst and data) accesses
system.cpu.itb.stage2_mmu.stage2_tlb.instHits            0                       # ITB inst hits
system.cpu.itb.stage2_mmu.stage2_tlb.instMisses            0                       # ITB inst misses
system.cpu.itb.stage2_mmu.stage2_tlb.readHits            0                       # DTB read hits
system.cpu.itb.stage2_mmu.stage2_tlb.readMisses            0                       # DTB read misses
system.cpu.itb.stage2_mmu.stage2_tlb.writeHits            0                       # DTB write hits
system.cpu.itb.stage2_mmu.stage2_tlb.writeMisses            0                       # DTB write misses
system.cpu.itb.stage2_mmu.stage2_tlb.inserts            0                       # Number of times an entry is inserted into the TLB
system.cpu.itb.stage2_mmu.stage2_tlb.flushTlb            0                       # Number of times complete TLB was flushed
system.cpu.itb.stage2_mmu.stage2_tlb.flushTlbMva            0                       # Number of times TLB was flushed by MVA
system.cpu.itb.stage2_mmu.stage2_tlb.flushTlbMvaAsid            0                       # Number of times TLB was flushed by MVA & ASID
system.cpu.itb.stage2_mmu.stage2_tlb.flushTlbAsid            0                       # Number of times TLB was flushed by ASID
system.cpu.itb.stage2_mmu.stage2_tlb.flushedEntries            0                       # Number of entries that have been flushed from TLB
system.cpu.itb.stage2_mmu.stage2_tlb.alignFaults            0                       # Number of TLB faults due to alignment restrictions
system.cpu.itb.stage2_mmu.stage2_tlb.prefetchFaults            0                       # Number of TLB faults due to prefetch
system.cpu.itb.stage2_mmu.stage2_tlb.domainFaults            0                       # Number of TLB faults due to domain restrictions
system.cpu.itb.stage2_mmu.stage2_tlb.permsFaults            0                       # Number of TLB faults due to permissions restrictions
system.cpu.itb.stage2_mmu.stage2_tlb.readAccesses            0                       # DTB read accesses
system.cpu.itb.stage2_mmu.stage2_tlb.writeAccesses            0                       # DTB write accesses
system.cpu.itb.stage2_mmu.stage2_tlb.instAccesses            0                       # ITB inst accesses
system.cpu.itb.stage2_mmu.stage2_tlb.hits            0                       # Total TLB (inst and data) hits
system.cpu.itb.stage2_mmu.stage2_tlb.misses            0                       # Total TLB (inst and data) misses
system.cpu.itb.stage2_mmu.stage2_tlb.accesses            0                       # Total TLB (inst and data) accesses
system.cpu.itb.stage2_mmu.stage2_tlb.walker.walks            0                       # Table walker walks requested
system.cpu.itb.stage2_mmu.stage2_tlb.walker.requestOrigin_Requested::Data            0                       # Table walker requests started/completed, data/inst
system.cpu.itb.stage2_mmu.stage2_tlb.walker.requestOrigin_Requested::Inst            0                       # Table walker requests started/completed, data/inst
system.cpu.itb.stage2_mmu.stage2_tlb.walker.requestOrigin_Requested::total            0                       # Table walker requests started/completed, data/inst
system.cpu.itb.stage2_mmu.stage2_tlb.walker.requestOrigin_Completed::Data            0                       # Table walker requests started/completed, data/inst
system.cpu.itb.stage2_mmu.stage2_tlb.walker.requestOrigin_Completed::Inst            0                       # Table walker requests started/completed, data/inst
system.cpu.itb.stage2_mmu.stage2_tlb.walker.requestOrigin_Completed::total            0                       # Table walker requests started/completed, data/inst
system.cpu.itb.stage2_mmu.stage2_tlb.walker.requestOrigin::total            0                       # Table walker requests started/completed, data/inst
system.cpu.itb.stage2_mmu.stage2_tlb.walker.power_state.pwrStateResidencyTicks::UNDEFINED  57822215500                       # Cumulative time (in ticks) in various power states
system.cpu.itb.walker.walks                         0                       # Table walker walks requested
system.cpu.itb.walker.requestOrigin_Requested::Data            0                       # Table walker requests started/completed, data/inst
system.cpu.itb.walker.requestOrigin_Requested::Inst            0                       # Table walker requests started/completed, data/inst
system.cpu.itb.walker.requestOrigin_Requested::total            0                       # Table walker requests started/completed, data/inst
system.cpu.itb.walker.requestOrigin_Completed::Data            0                       # Table walker requests started/completed, data/inst
system.cpu.itb.walker.requestOrigin_Completed::Inst            0                       # Table walker requests started/completed, data/inst
system.cpu.itb.walker.requestOrigin_Completed::total            0                       # Table walker requests started/completed, data/inst
system.cpu.itb.walker.requestOrigin::total            0                       # Table walker requests started/completed, data/inst
system.cpu.itb.walker.power_state.pwrStateResidencyTicks::UNDEFINED  57822215500                       # Cumulative time (in ticks) in various power states
system.cpu.power_state.pwrStateResidencyTicks::ON  57822215500                       # Cumulative time (in ticks) in various power states
system.cpu.thread0.numInsts                 100000001                       # Number of Instructions committed
system.cpu.thread0.numOps                   109431274                       # Number of Ops committed
system.cpu.thread0.numMemRefs                       0                       # Number of Memory References
system.cpu_clk_domain.clock                       500                       # Clock period in ticks
system.cpu_voltage_domain.voltage                   1                       # Voltage in Volts
system.l2.demand_hits::.cpu.inst                  249                       # number of demand (read+write) hits
system.l2.demand_hits::.cpu.data                44774                       # number of demand (read+write) hits
system.l2.demand_hits::total                    45023                       # number of demand (read+write) hits
system.l2.overall_hits::.cpu.inst                 249                       # number of overall hits
system.l2.overall_hits::.cpu.data               44774                       # number of overall hits
system.l2.overall_hits::total                   45023                       # number of overall hits
system.l2.demand_misses::.cpu.inst                521                       # number of demand (read+write) misses
system.l2.demand_misses::.cpu.data              45643                       # number of demand (read+write) misses
system.l2.demand_misses::total                  46164                       # number of demand (read+write) misses
system.l2.overall_misses::.cpu.inst               521                       # number of overall misses
system.l2.overall_misses::.cpu.data             45643                       # number of overall misses
system.l2.overall_misses::total                 46164                       # number of overall misses
system.l2.demand_miss_latency::.cpu.inst     39619000                       # number of demand (read+write) miss cycles
system.l2.demand_miss_latency::.cpu.data   3784328000                       # number of demand (read+write) miss cycles
system.l2.demand_miss_latency::total       3823947000                       # number of demand (read+write) miss cycles
system.l2.overall_miss_latency::.cpu.inst     39619000                       # number of overall miss cycles
system.l2.overall_miss_latency::.cpu.data   3784328000                       # number of overall miss cycles
system.l2.overall_miss_latency::total      3823947000                       # number of overall miss cycles
system.l2.demand_accesses::.cpu.inst              770                       # number of demand (read+write) accesses
system.l2.demand_accesses::.cpu.data            90417                       # number of demand (read+write) accesses
system.l2.demand_accesses::total                91187                       # number of demand (read+write) accesses
system.l2.overall_accesses::.cpu.inst             770                       # number of overall (read+write) accesses
system.l2.overall_accesses::.cpu.data           90417                       # number of overall (read+write) accesses
system.l2.overall_accesses::total               91187                       # number of overall (read+write) accesses
system.l2.demand_miss_rate::.cpu.inst        0.676623                       # miss rate for demand accesses
system.l2.demand_miss_rate::.cpu.data        0.504806                       # miss rate for demand accesses
system.l2.demand_miss_rate::total            0.506256                       # miss rate for demand accesses
system.l2.overall_miss_rate::.cpu.inst       0.676623                       # miss rate for overall accesses
system.l2.overall_miss_rate::.cpu.data       0.504806                       # miss rate for overall accesses
system.l2.overall_miss_rate::total           0.506256                       # miss rate for overall accesses
system.l2.demand_avg_miss_latency::.cpu.inst 76044.145873                       # average overall miss latency
system.l2.demand_avg_miss_latency::.cpu.data 82911.465066                       # average overall miss latency
system.l2.demand_avg_miss_latency::total 82833.961528                       # average overall miss latency
system.l2.overall_avg_miss_latency::.cpu.inst 76044.145873                       # average overall miss latency
system.l2.overall_avg_miss_latency::.cpu.data 82911.465066                       # average overall miss latency
system.l2.overall_avg_miss_latency::total 82833.961528                       # average overall miss latency
system.l2.blocked_cycles::no_mshrs                  0                       # number of cycles access was blocked
system.l2.blocked_cycles::no_targets                0                       # number of cycles access was blocked
system.l2.blocked::no_mshrs                         0                       # number of cycles access was blocked
system.l2.blocked::no_targets                       0                       # number of cycles access was blocked
system.l2.avg_blocked_cycles::no_mshrs            nan                       # average number of cycles each access was blocked
system.l2.avg_blocked_cycles::no_targets          nan                       # average number of cycles each access was blocked
system.l2.writebacks::.writebacks               37384                       # number of writebacks
system.l2.writebacks::total                     37384                       # number of writebacks
system.l2.demand_mshr_hits::.cpu.inst               1                       # number of demand (read+write) MSHR hits
system.l2.demand_mshr_hits::.cpu.data               5                       # number of demand (read+write) MSHR hits
system.l2.demand_mshr_hits::total                   6                       # number of demand (read+write) MSHR hits
system.l2.overall_mshr_hits::.cpu.inst              1                       # number of overall MSHR hits
system.l2.overall_mshr_hits::.cpu.data              5                       # number of overall MSHR hits
system.l2.overall_mshr_hits::total                  6                       # number of overall MSHR hits
system.l2.demand_mshr_misses::.cpu.inst           520                       # number of demand (read+write) MSHR misses
system.l2.demand_mshr_misses::.cpu.data         45638                       # number of demand (read+write) MSHR misses
system.l2.demand_mshr_misses::total             46158                       # number of demand (read+write) MSHR misses
system.l2.overall_mshr_misses::.cpu.inst          520                       # number of overall MSHR misses
system.l2.overall_mshr_misses::.cpu.data        45638                       # number of overall MSHR misses
system.l2.overall_mshr_misses::total            46158                       # number of overall MSHR misses
system.l2.demand_mshr_miss_latency::.cpu.inst     34105500                       # number of demand (read+write) MSHR miss cycles
system.l2.demand_mshr_miss_latency::.cpu.data   3327622500                       # number of demand (read+write) MSHR miss cycles
system.l2.demand_mshr_miss_latency::total   3361728000                       # number of demand (read+write) MSHR miss cycles
system.l2.overall_mshr_miss_latency::.cpu.inst     34105500                       # number of overall MSHR miss cycles
system.l2.overall_mshr_miss_latency::.cpu.data   3327622500                       # number of overall MSHR miss cycles
system.l2.overall_mshr_miss_latency::total   3361728000                       # number of overall MSHR miss cycles
system.l2.demand_mshr_miss_rate::.cpu.inst     0.675325                       # mshr miss rate for demand accesses
system.l2.demand_mshr_miss_rate::.cpu.data     0.504750                       # mshr miss rate for demand accesses
system.l2.demand_mshr_miss_rate::total       0.506191                       # mshr miss rate for demand accesses
system.l2.overall_mshr_miss_rate::.cpu.inst     0.675325                       # mshr miss rate for overall accesses
system.l2.overall_mshr_miss_rate::.cpu.data     0.504750                       # mshr miss rate for overall accesses
system.l2.overall_mshr_miss_rate::total      0.506191                       # mshr miss rate for overall accesses
system.l2.demand_avg_mshr_miss_latency::.cpu.inst 65587.500000                       # average overall mshr miss latency
system.l2.demand_avg_mshr_miss_latency::.cpu.data 72913.416451                       # average overall mshr miss latency
system.l2.demand_avg_mshr_miss_latency::total 72830.885220                       # average overall mshr miss latency
system.l2.overall_avg_mshr_miss_latency::.cpu.inst 65587.500000                       # average overall mshr miss latency
system.l2.overall_avg_mshr_miss_latency::.cpu.data 72913.416451                       # average overall mshr miss latency
system.l2.overall_avg_mshr_miss_latency::total 72830.885220                       # average overall mshr miss latency
system.l2.replacements                          37969                       # number of replacements
system.l2.WritebackDirty_hits::.writebacks        72167                       # number of WritebackDirty hits
system.l2.WritebackDirty_hits::total            72167                       # number of WritebackDirty hits
system.l2.WritebackDirty_accesses::.writebacks        72167                       # number of WritebackDirty accesses(hits+misses)
system.l2.WritebackDirty_accesses::total        72167                       # number of WritebackDirty accesses(hits+misses)
system.l2.WritebackClean_hits::.writebacks          310                       # number of WritebackClean hits
system.l2.WritebackClean_hits::total              310                       # number of WritebackClean hits
system.l2.WritebackClean_accesses::.writebacks          310                       # number of WritebackClean accesses(hits+misses)
system.l2.WritebackClean_accesses::total          310                       # number of WritebackClean accesses(hits+misses)
system.l2.ReadExReq_hits::.cpu.data              8665                       # number of ReadExReq hits
system.l2.ReadExReq_hits::total                  8665                       # number of ReadExReq hits
system.l2.ReadExReq_misses::.cpu.data           38810                       # number of ReadExReq misses
system.l2.ReadExReq_misses::total               38810                       # number of ReadExReq misses
system.l2.ReadExReq_miss_latency::.cpu.data   3171077500                       # number of ReadExReq miss cycles
system.l2.ReadExReq_miss_latency::total    3171077500                       # number of ReadExReq miss cycles
system.l2.ReadExReq_accesses::.cpu.data         47475                       # number of ReadExReq accesses(hits+misses)
system.l2.ReadExReq_accesses::total             47475                       # number of ReadExReq accesses(hits+misses)
system.l2.ReadExReq_miss_rate::.cpu.data     0.817483                       # miss rate for ReadExReq accesses
system.l2.ReadExReq_miss_rate::total         0.817483                       # miss rate for ReadExReq accesses
system.l2.ReadExReq_avg_miss_latency::.cpu.data 81707.742850                       # average ReadExReq miss latency
system.l2.ReadExReq_avg_miss_latency::total 81707.742850                       # average ReadExReq miss latency
system.l2.ReadExReq_mshr_misses::.cpu.data        38810                       # number of ReadExReq MSHR misses
system.l2.ReadExReq_mshr_misses::total          38810                       # number of ReadExReq MSHR misses
system.l2.ReadExReq_mshr_miss_latency::.cpu.data   2782977500                       # number of ReadExReq MSHR miss cycles
system.l2.ReadExReq_mshr_miss_latency::total   2782977500                       # number of ReadExReq MSHR miss cycles
system.l2.ReadExReq_mshr_miss_rate::.cpu.data     0.817483                       # mshr miss rate for ReadExReq accesses
system.l2.ReadExReq_mshr_miss_rate::total     0.817483                       # mshr miss rate for ReadExReq accesses
system.l2.ReadExReq_avg_mshr_miss_latency::.cpu.data 71707.742850                       # average ReadExReq mshr miss latency
system.l2.ReadExReq_avg_mshr_miss_latency::total 71707.742850                       # average ReadExReq mshr miss latency
system.l2.ReadCleanReq_hits::.cpu.inst            249                       # number of ReadCleanReq hits
system.l2.ReadCleanReq_hits::total                249                       # number of ReadCleanReq hits
system.l2.ReadCleanReq_misses::.cpu.inst          521                       # number of ReadCleanReq misses
system.l2.ReadCleanReq_misses::total              521                       # number of ReadCleanReq misses
system.l2.ReadCleanReq_miss_latency::.cpu.inst     39619000                       # number of ReadCleanReq miss cycles
system.l2.ReadCleanReq_miss_latency::total     39619000                       # number of ReadCleanReq miss cycles
system.l2.ReadCleanReq_accesses::.cpu.inst          770                       # number of ReadCleanReq accesses(hits+misses)
system.l2.ReadCleanReq_accesses::total            770                       # number of ReadCleanReq accesses(hits+misses)
system.l2.ReadCleanReq_miss_rate::.cpu.inst     0.676623                       # miss rate for ReadCleanReq accesses
system.l2.ReadCleanReq_miss_rate::total      0.676623                       # miss rate for ReadCleanReq accesses
system.l2.ReadCleanReq_avg_miss_latency::.cpu.inst 76044.145873                       # average ReadCleanReq miss latency
system.l2.ReadCleanReq_avg_miss_latency::total 76044.145873                       # average ReadCleanReq miss latency
system.l2.ReadCleanReq_mshr_hits::.cpu.inst            1                       # number of ReadCleanReq MSHR hits
system.l2.ReadCleanReq_mshr_hits::total             1                       # number of ReadCleanReq MSHR hits
system.l2.ReadCleanReq_mshr_misses::.cpu.inst          520                       # number of ReadCleanReq MSHR misses
system.l2.ReadCleanReq_mshr_misses::total          520                       # number of ReadCleanReq MSHR misses
system.l2.ReadCleanReq_mshr_miss_latency::.cpu.inst     34105500                       # number of ReadCleanReq MSHR miss cycles
system.l2.ReadCleanReq_mshr_miss_latency::total     34105500                       # number of ReadCleanReq MSHR miss cycles
system.l2.ReadCleanReq_mshr_miss_rate::.cpu.inst     0.675325                       # mshr miss rate for ReadCleanReq accesses
system.l2.ReadCleanReq_mshr_miss_rate::total     0.675325                       # mshr miss rate for ReadCleanReq accesses
system.l2.ReadCleanReq_avg_mshr_miss_latency::.cpu.inst 65587.500000                       # average ReadCleanReq mshr miss latency
system.l2.ReadCleanReq_avg_mshr_miss_latency::total 65587.500000                       # average ReadCleanReq mshr miss latency
system.l2.ReadSharedReq_hits::.cpu.data         36109                       # number of ReadSharedReq hits
system.l2.ReadSharedReq_hits::total             36109                       # number of ReadSharedReq hits
system.l2.ReadSharedReq_misses::.cpu.data         6833                       # number of ReadSharedReq misses
system.l2.ReadSharedReq_misses::total            6833                       # number of ReadSharedReq misses
system.l2.ReadSharedReq_miss_latency::.cpu.data    613250500                       # number of ReadSharedReq miss cycles
system.l2.ReadSharedReq_miss_latency::total    613250500                       # number of ReadSharedReq miss cycles
system.l2.ReadSharedReq_accesses::.cpu.data        42942                       # number of ReadSharedReq accesses(hits+misses)
system.l2.ReadSharedReq_accesses::total         42942                       # number of ReadSharedReq accesses(hits+misses)
system.l2.ReadSharedReq_miss_rate::.cpu.data     0.159122                       # miss rate for ReadSharedReq accesses
system.l2.ReadSharedReq_miss_rate::total     0.159122                       # miss rate for ReadSharedReq accesses
system.l2.ReadSharedReq_avg_miss_latency::.cpu.data 89748.353578                       # average ReadSharedReq miss latency
system.l2.ReadSharedReq_avg_miss_latency::total 89748.353578                       # average ReadSharedReq miss latency
system.l2.ReadSharedReq_mshr_hits::.cpu.data            5                       # number of ReadSharedReq MSHR hits
system.l2.ReadSharedReq_mshr_hits::total            5                       # number of ReadSharedReq MSHR hits
system.l2.ReadSharedReq_mshr_misses::.cpu.data         6828                       # number of ReadSharedReq MSHR misses
system.l2.ReadSharedReq_mshr_misses::total         6828                       # number of ReadSharedReq MSHR misses
system.l2.ReadSharedReq_mshr_miss_latency::.cpu.data    544645000                       # number of ReadSharedReq MSHR miss cycles
system.l2.ReadSharedReq_mshr_miss_latency::total    544645000                       # number of ReadSharedReq MSHR miss cycles
system.l2.ReadSharedReq_mshr_miss_rate::.cpu.data     0.159005                       # mshr miss rate for ReadSharedReq accesses
system.l2.ReadSharedReq_mshr_miss_rate::total     0.159005                       # mshr miss rate for ReadSharedReq accesses
system.l2.ReadSharedReq_avg_mshr_miss_latency::.cpu.data 79766.403046                       # average ReadSharedReq mshr miss latency
system.l2.ReadSharedReq_avg_mshr_miss_latency::total 79766.403046                       # average ReadSharedReq mshr miss latency
system.l2.power_state.pwrStateResidencyTicks::UNDEFINED  57822215500                       # Cumulative time (in ticks) in various power states
system.l2.tags.tagsinuse                  8000.117766                       # Cycle average of tags in use
system.l2.tags.total_refs                      179315                       # Total number of references to valid blocks.
system.l2.tags.sampled_refs                     46161                       # Sample count of references to valid blocks.
system.l2.tags.avg_refs                      3.884556                       # Average number of references to valid blocks.
system.l2.tags.warmup_cycle                     77000                       # Cycle when the warmup percentage was hit.
system.l2.tags.occ_blocks::.writebacks       0.623715                       # Average occupied blocks per requestor
system.l2.tags.occ_blocks::.cpu.inst        34.584688                       # Average occupied blocks per requestor
system.l2.tags.occ_blocks::.cpu.data      7964.909363                       # Average occupied blocks per requestor
system.l2.tags.occ_percent::.writebacks      0.000076                       # Average percentage of cache occupancy
system.l2.tags.occ_percent::.cpu.inst        0.004222                       # Average percentage of cache occupancy
system.l2.tags.occ_percent::.cpu.data        0.972279                       # Average percentage of cache occupancy
system.l2.tags.occ_percent::total            0.976577                       # Average percentage of cache occupancy
system.l2.tags.occ_task_id_blocks::1024          8192                       # Occupied blocks per task id
system.l2.tags.age_task_id_blocks_1024::0            3                       # Occupied blocks per task id
system.l2.tags.age_task_id_blocks_1024::1           35                       # Occupied blocks per task id
system.l2.tags.age_task_id_blocks_1024::2          557                       # Occupied blocks per task id
system.l2.tags.age_task_id_blocks_1024::3         4646                       # Occupied blocks per task id
system.l2.tags.age_task_id_blocks_1024::4         2951                       # Occupied blocks per task id
system.l2.tags.occ_task_id_percent::1024            1                       # Percentage of cache occupancy per task id
system.l2.tags.tag_accesses                   1480729                       # Number of tag accesses
system.l2.tags.data_accesses                  1480729                       # Number of data accesses
system.l2.tags.power_state.pwrStateResidencyTicks::UNDEFINED  57822215500                       # Cumulative time (in ticks) in various power states
system.mem_ctrls.avgPriority_.writebacks::samples     37384.00                       # Average QoS priority value for accepted requests
system.mem_ctrls.avgPriority_.cpu.inst::samples       520.00                       # Average QoS priority value for accepted requests
system.mem_ctrls.avgPriority_.cpu.data::samples     45610.00                       # Average QoS priority value for accepted requests
system.mem_ctrls.priorityMinLatency      0.000000018750                       # per QoS priority minimum request to response latency (s)
system.mem_ctrls.priorityMaxLatency      0.001693512750                       # per QoS priority maximum request to response latency (s)
system.mem_ctrls.numReadWriteTurnArounds         2094                       # Number of turnarounds from READ to WRITE
system.mem_ctrls.numWriteReadTurnArounds         2094                       # Number of turnarounds from WRITE to READ
system.mem_ctrls.numStayReadState              143873                       # Number of times bus staying in READ state
system.mem_ctrls.numStayWriteState              35300                       # Number of times bus staying in WRITE state
system.mem_ctrls.readReqs                       46158                       # Number of read requests accepted
system.mem_ctrls.writeReqs                      37384                       # Number of write requests accepted
system.mem_ctrls.readBursts                     46158                       # Number of controller read bursts, including those serviced by the write queue
system.mem_ctrls.writeBursts                    37384                       # Number of controller write bursts, including those merged in the write queue
system.mem_ctrls.servicedByWrQ                     28                       # Number of controller read bursts serviced by the write queue
system.mem_ctrls.mergedWrBursts                     0                       # Number of controller write bursts merged with an existing one
system.mem_ctrls.neitherReadNorWriteReqs            0                       # Number of requests that are neither read nor write
system.mem_ctrls.avgRdQLen                       1.07                       # Average read queue length when enqueuing
system.mem_ctrls.avgWrQLen                      23.47                       # Average write queue length when enqueuing
system.mem_ctrls.numRdRetry                         0                       # Number of times read queue was full causing retry
system.mem_ctrls.numWrRetry                         0                       # Number of times write queue was full causing retry
system.mem_ctrls.readPktSize::0                     0                       # Read request sizes (log2)
system.mem_ctrls.readPktSize::1                     0                       # Read request sizes (log2)
system.mem_ctrls.readPktSize::2                     0                       # Read request sizes (log2)
system.mem_ctrls.readPktSize::3                     0                       # Read request sizes (log2)
[...]
system.mem_ctrls.dram.bw_write::.writebacks     41378145                       # Write bandwidth from this memory (bytes/s)
system.mem_ctrls.dram.bw_write::total        41378145                       # Write bandwidth from this memory (bytes/s)
system.mem_ctrls.dram.bw_total::.writebacks     41378145                       # Total bandwidth to/from this memory (bytes/s)
system.mem_ctrls.dram.bw_total::.cpu.inst       575557                       # Total bandwidth to/from this memory (bytes/s)
system.mem_ctrls.dram.bw_total::.cpu.data     50514010                       # Total bandwidth to/from this memory (bytes/s)
system.mem_ctrls.dram.bw_total::total        92467713                       # Total bandwidth to/from this memory (bytes/s)
system.mem_ctrls.dram.readBursts                46130                       # Number of DRAM read bursts
system.mem_ctrls.dram.writeBursts               37355                       # Number of DRAM write bursts
system.mem_ctrls.dram.perBankRdBursts::0         2938                       # Per bank write bursts
system.mem_ctrls.dram.perBankRdBursts::1         2811                       # Per bank write bursts
system.mem_ctrls.dram.perBankRdBursts::2         2884                       # Per bank write bursts
system.mem_ctrls.dram.perBankRdBursts::3         2946                       # Per bank write bursts
system.mem_ctrls.dram.perBankRdBursts::4         2903                       # Per bank write bursts
system.mem_ctrls.dram.perBankRdBursts::5         2727                       # Per bank write bursts
system.mem_ctrls.dram.perBankRdBursts::6         2848                       # Per bank write bursts
system.mem_ctrls.dram.perBankRdBursts::7         2966                       # Per bank write bursts
system.mem_ctrls.dram.perBankRdBursts::8         2840                       # Per bank write bursts
system.mem_ctrls.dram.perBankRdBursts::9         2861                       # Per bank write bursts
system.mem_ctrls.dram.perBankRdBursts::10         2966                       # Per bank write bursts
system.mem_ctrls.dram.perBankRdBursts::11         2886                       # Per bank write bursts
system.mem_ctrls.dram.perBankRdBursts::12         2891                       # Per bank write bursts
system.mem_ctrls.dram.perBankRdBursts::13         2917                       # Per bank write bursts
system.mem_ctrls.dram.perBankRdBursts::14         2881                       # Per bank write bursts
system.mem_ctrls.dram.perBankRdBursts::15         2865                       # Per bank write bursts
system.mem_ctrls.dram.perBankWrBursts::0         2342                       # Per bank write bursts
system.mem_ctrls.dram.perBankWrBursts::1         2240                       # Per bank write bursts
system.mem_ctrls.dram.perBankWrBursts::2         2344                       # Per bank write bursts
system.mem_ctrls.dram.perBankWrBursts::3         2300                       # Per bank write bursts
system.mem_ctrls.dram.perBankWrBursts::4         2325                       # Per bank write bursts
system.mem_ctrls.dram.perBankWrBursts::5         2273                       # Per bank write bursts
system.mem_ctrls.dram.perBankWrBursts::6         2372                       # Per bank write bursts
system.mem_ctrls.dram.perBankWrBursts::7         2426                       # Per bank write bursts
system.mem_ctrls.dram.perBankWrBursts::8         2349                       # Per bank write bursts
system.mem_ctrls.dram.perBankWrBursts::9         2323                       # Per bank write bursts
system.mem_ctrls.dram.perBankWrBursts::10         2432                       # Per bank write bursts
system.mem_ctrls.dram.perBankWrBursts::11         2363                       # Per bank write bursts
system.mem_ctrls.dram.perBankWrBursts::12         2354                       # Per bank write bursts
system.mem_ctrls.dram.perBankWrBursts::13         2325                       # Per bank write bursts
system.mem_ctrls.dram.perBankWrBursts::14         2261                       # Per bank write bursts
system.mem_ctrls.dram.perBankWrBursts::15         2326                       # Per bank write bursts
system.mem_ctrls.dram.totQLat               600527500                       # Total ticks spent queuing
system.mem_ctrls.dram.totBusLat             230650000                       # Total ticks spent in databus transfers
system.mem_ctrls.dram.totMemAccLat         1465465000                       # Total ticks spent from burst creation until serviced by the DRAM
system.mem_ctrls.dram.avgQLat                13018.16                       # Average queueing delay per DRAM burst
system.mem_ctrls.dram.avgBusLat               5000.00                       # Average bus latency per DRAM burst
system.mem_ctrls.dram.avgMemAccLat           31768.16                       # Average memory access latency per DRAM burst
system.mem_ctrls.dram.readRowHits               28858                       # Number of row buffer hits during reads
system.mem_ctrls.dram.writeRowHits              25038                       # Number of row buffer hits during writes
system.mem_ctrls.dram.readRowHitRate            62.56                       # Row buffer hit rate for reads
system.mem_ctrls.dram.writeRowHitRate           67.03                       # Row buffer hit rate for writes
system.mem_ctrls.dram.bytesPerActivate::samples        29589                       # Bytes accessed per row activation
system.mem_ctrls.dram.bytesPerActivate::mean   180.575214                       # Bytes accessed per row activation
system.mem_ctrls.dram.bytesPerActivate::gmean   126.120408                       # Bytes accessed per row activation
system.mem_ctrls.dram.bytesPerActivate::stdev   192.334654                       # Bytes accessed per row activation
system.mem_ctrls.dram.bytesPerActivate::0-127        14297     48.32%     48.32% # Bytes accessed per row activation
system.mem_ctrls.dram.bytesPerActivate::128-255         9901     33.46%     81.78% # Bytes accessed per row activation
system.mem_ctrls.dram.bytesPerActivate::256-383         1845      6.24%     88.02% # Bytes accessed per row activation
system.mem_ctrls.dram.bytesPerActivate::384-511         1115      3.77%     91.78% # Bytes accessed per row activation
system.mem_ctrls.dram.bytesPerActivate::512-639          830      2.81%     94.59% # Bytes accessed per row activation
system.mem_ctrls.dram.bytesPerActivate::640-767          543      1.84%     96.42% # Bytes accessed per row activation
system.mem_ctrls.dram.bytesPerActivate::768-895          395      1.33%     97.76% # Bytes accessed per row activation
system.mem_ctrls.dram.bytesPerActivate::896-1023          355      1.20%     98.96% # Bytes accessed per row activation
system.mem_ctrls.dram.bytesPerActivate::1024-1151          308      1.04%    100.00% # Bytes accessed per row activation
system.mem_ctrls.dram.bytesPerActivate::total        29589                       # Bytes accessed per row activation
system.mem_ctrls.dram.bytesRead               2952320                       # Total number of bytes read from DRAM
system.mem_ctrls.dram.bytesWritten            2390720                       # Total number of bytes written to DRAM
system.mem_ctrls.dram.avgRdBW               51.058576                       # Average DRAM read bandwidth in MiBytes/s
system.mem_ctrls.dram.avgWrBW               41.346046                       # Average DRAM write bandwidth in MiBytes/s
system.mem_ctrls.dram.peakBW                 12800.00                       # Theoretical peak bandwidth in MiByte/s
system.mem_ctrls.dram.busUtil                    0.72                       # Data bus utilization in percentage
system.mem_ctrls.dram.busUtilRead                0.40                       # Data bus utilization in percentage for reads
system.mem_ctrls.dram.busUtilWrite               0.32                       # Data bus utilization in percentage for writes
system.mem_ctrls.dram.pageHitRate               64.56                       # Row buffer hit rate, read and write combined
system.mem_ctrls.dram.power_state.pwrStateResidencyTicks::UNDEFINED  57822215500                       # Cumulative time (in ticks) in various power states
system.mem_ctrls.dram.rank0.actEnergy       106514520                       # Energy for activate commands per rank (pJ)
system.mem_ctrls.dram.rank0.preEnergy        56613810                       # Energy for precharge commands per rank (pJ)
system.mem_ctrls.dram.rank0.readEnergy      164384220                       # Energy for read commands per rank (pJ)
system.mem_ctrls.dram.rank0.writeEnergy      97206840                       # Energy for write commands per rank (pJ)
system.mem_ctrls.dram.rank0.refreshEnergy 4564316640.000001                       # Energy for refresh commands per rank (pJ)
system.mem_ctrls.dram.rank0.actBackEnergy  15748695300                       # Energy for active background per rank (pJ)
system.mem_ctrls.dram.rank0.preBackEnergy   8941671840                       # Energy for precharge background per rank (pJ)
system.mem_ctrls.dram.rank0.actPowerDownEnergy            0                       # Energy for active power-down per rank (pJ)
system.mem_ctrls.dram.rank0.prePowerDownEnergy            0                       # Energy for precharge power-down per rank (pJ)
system.mem_ctrls.dram.rank0.selfRefreshEnergy            0                       # Energy for self refresh per rank (pJ)
system.mem_ctrls.dram.rank0.totalEnergy   29679403170                       # Total energy per rank (pJ)
system.mem_ctrls.dram.rank0.averagePower   513.287201                       # Core power per rank (mW)
system.mem_ctrls.dram.rank0.totalIdleTime            0                       # Total Idle time Per DRAM Rank
system.mem_ctrls.dram.rank0.pwrStateTime::IDLE  23096573500                       # Time in different power states
system.mem_ctrls.dram.rank0.pwrStateTime::REF   1930760000                       # Time in different power states
system.mem_ctrls.dram.rank0.pwrStateTime::SREF            0                       # Time in different power states
system.mem_ctrls.dram.rank0.pwrStateTime::PRE_PDN            0                       # Time in different power states
system.mem_ctrls.dram.rank0.pwrStateTime::ACT  32794882000                       # Time in different power states
system.mem_ctrls.dram.rank0.pwrStateTime::ACT_PDN            0                       # Time in different power states
system.mem_ctrls.dram.rank1.actEnergy       104750940                       # Energy for activate commands per rank (pJ)
system.mem_ctrls.dram.rank1.preEnergy        55676445                       # Energy for precharge commands per rank (pJ)
system.mem_ctrls.dram.rank1.readEnergy      164983980                       # Energy for read commands per rank (pJ)
system.mem_ctrls.dram.rank1.writeEnergy      97786260                       # Energy for write commands per rank (pJ)
system.mem_ctrls.dram.rank1.refreshEnergy 4564316640.000001                       # Energy for refresh commands per rank (pJ)
system.mem_ctrls.dram.rank1.actBackEnergy  16135728720                       # Energy for active background per rank (pJ)
system.mem_ctrls.dram.rank1.preBackEnergy   8615748960                       # Energy for precharge background per rank (pJ)
system.mem_ctrls.dram.rank1.actPowerDownEnergy            0                       # Energy for active power-down per rank (pJ)
system.mem_ctrls.dram.rank1.prePowerDownEnergy            0                       # Energy for precharge power-down per rank (pJ)
system.mem_ctrls.dram.rank1.selfRefreshEnergy            0                       # Energy for self refresh per rank (pJ)
system.mem_ctrls.dram.rank1.totalEnergy   29738991945                       # Total energy per rank (pJ)
system.mem_ctrls.dram.rank1.averagePower   514.317753                       # Core power per rank (mW)
system.mem_ctrls.dram.rank1.totalIdleTime            0                       # Total Idle time Per DRAM Rank
system.mem_ctrls.dram.rank1.pwrStateTime::IDLE  22245930000                       # Time in different power states
system.mem_ctrls.dram.rank1.pwrStateTime::REF   1930760000                       # Time in different power states
system.mem_ctrls.dram.rank1.pwrStateTime::SREF            0                       # Time in different power states
system.mem_ctrls.dram.rank1.pwrStateTime::PRE_PDN            0                       # Time in different power states
system.mem_ctrls.dram.rank1.pwrStateTime::ACT  33645525500                       # Time in different power states
system.mem_ctrls.dram.rank1.pwrStateTime::ACT_PDN            0                       # Time in different power states
system.mem_ctrls.power_state.pwrStateResidencyTicks::UNDEFINED  57822215500                       # Cumulative time (in ticks) in various power states
system.membus.trans_dist::ReadResp               7348                       # Transaction distribution
system.membus.trans_dist::WritebackDirty        37384                       # Transaction distribution
system.membus.trans_dist::CleanEvict              131                       # Transaction distribution
system.membus.trans_dist::ReadExReq             38810                       # Transaction distribution
system.membus.trans_dist::ReadExResp            38810                       # Transaction distribution
system.membus.trans_dist::ReadSharedReq          7348                       # Transaction distribution
system.membus.pkt_count_system.l2.mem_side_port::system.mem_ctrls.port       129831                       # Packet count per connected requestor and responder (bytes)
system.membus.pkt_count::total                 129831                       # Packet count per connected requestor and responder (bytes)
system.membus.pkt_size_system.l2.mem_side_port::system.mem_ctrls.port      5346688                       # Cumulative packet size per connected requestor and responder (bytes)
system.membus.pkt_size::total                 5346688                       # Cumulative packet size per connected requestor and responder (bytes)
system.membus.snoops                                0                       # Total snoops (count)
system.membus.snoopTraffic                          0                       # Total snoop traffic (bytes)
system.membus.snoop_fanout::samples             46158                       # Request fanout histogram
system.membus.snoop_fanout::mean                    0                       # Request fanout histogram
system.membus.snoop_fanout::stdev                   0                       # Request fanout histogram
system.membus.snoop_fanout::underflows              0      0.00%      0.00% # Request fanout histogram
system.membus.snoop_fanout::0                   46158    100.00%    100.00% # Request fanout histogram
system.membus.snoop_fanout::1                       0      0.00%    100.00% # Request fanout histogram
system.membus.snoop_fanout::overflows               0      0.00%    100.00% # Request fanout histogram
system.membus.snoop_fanout::min_value               0                       # Request fanout histogram
system.membus.snoop_fanout::max_value               0                       # Request fanout histogram
system.membus.snoop_fanout::total               46158                       # Request fanout histogram
system.membus.power_state.pwrStateResidencyTicks::UNDEFINED  57822215500                       # Cumulative time (in ticks) in various power states
system.membus.reqLayer0.occupancy           244361000                       # Layer occupancy (ticks)
system.membus.reqLayer0.utilization               0.4                       # Layer utilization (%)
system.membus.respLayer1.occupancy          246734250                       # Layer occupancy (ticks)
system.membus.respLayer1.utilization              0.4                       # Layer utilization (%)
system.tol2bus.trans_dist::ReadResp             43712                       # Transaction distribution
system.tol2bus.trans_dist::WritebackDirty       109551                       # Transaction distribution
system.tol2bus.trans_dist::WritebackClean          314                       # Transaction distribution
system.tol2bus.trans_dist::CleanEvict           18323                       # Transaction distribution
system.tol2bus.trans_dist::ReadExReq            47475                       # Transaction distribution
system.tol2bus.trans_dist::ReadExResp           47475                       # Transaction distribution
system.tol2bus.trans_dist::ReadCleanReq           770                       # Transaction distribution
system.tol2bus.trans_dist::ReadSharedReq        42942                       # Transaction distribution
system.tol2bus.pkt_count_system.cpu.icache.mem_side_port::system.l2.cpu_side_port         1854                       # Packet count per connected requestor and responder (bytes)
system.tol2bus.pkt_count_system.cpu.dcache.mem_side_port::system.l2.cpu_side_port       270739                       # Packet count per connected requestor and responder (bytes)
system.tol2bus.pkt_count::total                272593                       # Packet count per connected requestor and responder (bytes)
system.tol2bus.pkt_size_system.cpu.icache.mem_side_port::system.l2.cpu_side_port        69376                       # Cumulative packet size per connected requestor and responder (bytes)
system.tol2bus.pkt_size_system.cpu.dcache.mem_side_port::system.l2.cpu_side_port     10405376                       # Cumulative packet size per connected requestor and responder (bytes)
system.tol2bus.pkt_size::total               10474752                       # Cumulative packet size per connected requestor and responder (bytes)
system.tol2bus.snoops                           37969                       # Total snoops (count)
system.tol2bus.snoopTraffic                   2392576                       # Total snoop traffic (bytes)
system.tol2bus.snoop_fanout::samples           129156                       # Request fanout histogram
system.tol2bus.snoop_fanout::mean            0.019689                       # Request fanout histogram
system.tol2bus.snoop_fanout::stdev           0.138931                       # Request fanout histogram
system.tol2bus.snoop_fanout::underflows             0      0.00%      0.00% # Request fanout histogram
system.tol2bus.snoop_fanout::0                 126613     98.03%     98.03% # Request fanout histogram
system.tol2bus.snoop_fanout::1                   2543      1.97%    100.00% # Request fanout histogram
system.tol2bus.snoop_fanout::2                      0      0.00%    100.00% # Request fanout histogram
system.tol2bus.snoop_fanout::overflows              0      0.00%    100.00% # Request fanout histogram
system.tol2bus.snoop_fanout::min_value              0                       # Request fanout histogram
system.tol2bus.snoop_fanout::max_value              1                       # Request fanout histogram
system.tol2bus.snoop_fanout::total             129156                       # Request fanout histogram
system.tol2bus.power_state.pwrStateResidencyTicks::UNDEFINED  57822215500                       # Cumulative time (in ticks) in various power states
system.tol2bus.reqLayer0.occupancy          163184000                       # Layer occupancy (ticks)
system.tol2bus.reqLayer0.utilization              0.3                       # Layer utilization (%)
system.tol2bus.respLayer0.occupancy           1155499                       # Layer occupancy (ticks)
system.tol2bus.respLayer0.utilization             0.0                       # Layer utilization (%)
system.tol2bus.respLayer1.occupancy         135627995                       # Layer occupancy (ticks)
system.tol2bus.respLayer1.utilization             0.2                       # Layer utilization (%)
system.voltage_domain.voltage                       1                       # Voltage in Volts

---------- End Simulation Statistics   ----------
