
---------- Begin Simulation Statistics ----------
final_tick                                57671597000                       # Number of ticks from beginning of simulation (restored from checkpoints and never reset)
host_inst_rate                                 193036                       # Simulator instruction rate (inst/s)
host_mem_usage                                 655340                       # Number of bytes of host memory used
host_op_rate                                   211242                       # Simulator op (including micro ops) rate (op/s)
host_seconds                                   518.04                       # Real time elapsed on the host
host_tick_rate                              111326992                       # Simulator tick rate (ticks/s)
sim_freq                                 1000000000000                       # Frequency of simulated ticks
sim_insts                                   100000000                       # Number of instructions simulated
sim_ops                                     109431273                       # Number of ops (including micro ops) simulated
sim_seconds                                  0.057672                       # Number of seconds simulated
sim_ticks                                 57671597000                       # Number of ticks simulated
system.cpu.committedInsts                   100000000                       # Number of instructions committed
system.cpu.committedOps                     109431273                       # Number of ops (including micro ops) committed
system.cpu.cpi                               1.153432                       # CPI: cycles per instruction
system.cpu.discardedOps                        377906                       # Number of ops (including micro ops) which were discarded before commit
system.cpu.idleCycles                         5083775                       # Total number of cycles that the object has spent stopped
system.cpu.ipc                               0.866978                       # IPC: instructions per cycle
system.cpu.numCycles                        115343194                       # number of cpu cycles simulated
system.cpu.numFetchSuspends                         0                       # Number of times Execute suspended instruction fetching
system.cpu.numWorkItemsCompleted                    0                       # number of work items this cpu completed
system.cpu.numWorkItemsStarted                      0                       # number of work items this cpu started
system.cpu.op_class_0::No_OpClass                   0      0.00%      0.00% # Class of committed instruction
system.cpu.op_class_0::IntAlu                72954992     66.67%     66.67% # Class of committed instruction
system.cpu.op_class_0::IntMult                 568364      0.52%     67.19% # Class of committed instruction
system.cpu.op_class_0::IntDiv                       0      0.00%     67.19% # Class of committed instruction
system.cpu.op_class_0::FloatAdd                     0      0.00%     67.19% # Class of committed instruction
system.cpu.op_class_0::FloatCmp                     0      0.00%     67.19% # Class of committed instruction
system.cpu.op_class_0::FloatCvt                     0      0.00%     67.19% # Class of committed instruction
system.cpu.op_class_0::FloatMult                    0      0.00%     67.19% # Class of committed instruction
system.cpu.op_class_0::FloatMultAcc                 0      0.00%     67.19% # Class of committed instruction
system.cpu.op_class_0::FloatDiv                     0      0.00%     67.19% # Class of committed instruction
system.cpu.op_class_0::FloatMisc                    0      0.00%     67.19% # Class of committed instruction
system.cpu.op_class_0::FloatSqrt                    0      0.00%     67.19% # Class of committed instruction
system.cpu.op_class_0::SimdAdd                 241336      0.22%     67.41% # Class of committed instruction
system.cpu.op_class_0::SimdAddAcc                   0      0.00%     67.41% # Class of committed instruction
system.cpu.op_class_0::SimdAlu                 154628      0.14%     67.55% # Class of committed instruction
system.cpu.op_class_0::SimdCmp                 120668      0.11%     67.66% # Class of committed instruction
system.cpu.op_class_0::SimdCvt                      0      0.00%     67.66% # Class of committed instruction
system.cpu.op_class_0::SimdMisc                 44543      0.04%     67.70% # Class of committed instruction
system.cpu.op_class_0::SimdMult                     0      0.00%     67.70% # Class of committed instruction
system.cpu.op_class_0::SimdMultAcc                  0      0.00%     67.70% # Class of committed instruction
system.cpu.op_class_0::SimdShift                    0      0.00%     67.70% # Class of committed instruction
system.cpu.op_class_0::SimdShiftAcc                 0      0.00%     67.70% # Class of committed instruction
system.cpu.op_class_0::SimdDiv                      0      0.00%     67.70% # Class of committed instruction
system.cpu.op_class_0::SimdSqrt                     0      0.00%     67.70% # Class of committed instruction
system.cpu.op_class_0::SimdFloatAdd                 0      0.00%     67.70% # Class of committed instruction
system.cpu.op_class_0::SimdFloatAlu                 0      0.00%     67.70% # Class of committed instruction
system.cpu.op_class_0::SimdFloatCmp                 0      0.00%     67.70% # Class of committed instruction
system.cpu.op_class_0::SimdFloatCvt                 0      0.00%     67.70% # Class of committed instruction
system.cpu.op_class_0::SimdFloatDiv                 0      0.00%     67.70% # Class of committed instruction
system.cpu.op_class_0::SimdFloatMisc           166417      0.15%     67.85% # Class of committed instruction
system.cpu.op_class_0::SimdFloatMult                0      0.00%     67.85% # Class of committed instruction
system.cpu.op_class_0::SimdFloatMultAcc             0      0.00%     67.85% # Class of committed instruction
system.cpu.op_class_0::SimdFloatSqrt                0      0.00%     67.85% # Class of committed instruction
system.cpu.op_class_0::SimdReduceAdd                0      0.00%     67.85% # Class of committed instruction
system.cpu.op_class_0::SimdReduceAlu                0      0.00%     67.85% # Class of committed instruction
system.cpu.op_class_0::SimdReduceCmp                0      0.00%     67.85% # Class of committed instruction
system.cpu.op_class_0::SimdFloatReduceAdd            0      0.00%     67.85% # Class of committed instruction
system.cpu.op_class_0::SimdFloatReduceCmp            0      0.00%     67.85% # Class of committed instruction
system.cpu.op_class_0::SimdAes                      0      0.00%     67.85% # Class of committed instruction
system.cpu.op_class_0::SimdAesMix                   0      0.00%     67.85% # Class of committed instruction
system.cpu.op_class_0::SimdSha1Hash                 0      0.00%     67.85% # Class of committed instruction
system.cpu.op_class_0::SimdSha1Hash2                0      0.00%     67.85% # Class of committed instruction
system.cpu.op_class_0::SimdSha256Hash               0      0.00%     67.85% # Class of committed instruction
system.cpu.op_class_0::SimdSha256Hash2              0      0.00%     67.85% # Class of committed instruction
system.cpu.op_class_0::SimdShaSigma2                0      0.00%     67.85% # Class of committed instruction
system.cpu.op_class_0::SimdShaSigma3                0      0.00%     67.85% # Class of committed instruction
system.cpu.op_class_0::SimdPredAlu                  0      0.00%     67.85% # Class of committed instruction
system.cpu.op_class_0::MemRead               20645995     18.87%     86.72% # Class of committed instruction
system.cpu.op_class_0::MemWrite              14534330     13.28%    100.00% # Class of committed instruction
system.cpu.op_class_0::FloatMemRead                 0      0.00%    100.00% # Class of committed instruction
system.cpu.op_class_0::FloatMemWrite                0      0.00%    100.00% # Class of committed instruction
system.cpu.op_class_0::IprAccess                    0      0.00%    100.00% # Class of committed instruction
system.cpu.op_class_0::InstPrefetch                 0      0.00%    100.00% # Class of committed instruction
system.cpu.op_class_0::total                109431273                       # Class of committed instruction
system.cpu.tickCycles                       110259419                       # Number of cycles that the object actually ticked
system.cpu.workload.numSyscalls                    87                       # Number of system calls
system.membus.snoop_filter.hit_multi_requests            0                       # Number of requests hitting in the snoop filter with multiple (>1) holders of the requested data.
system.membus.snoop_filter.hit_multi_snoops            0                       # Number of snoops hitting in the snoop filter with multiple (>1) holders of the requested data.
system.membus.snoop_filter.hit_single_requests        26160                       # Number of requests hitting in the snoop filter with a single holder of the requested data.
system.membus.snoop_filter.hit_single_snoops            0                       # Number of snoops hitting in the snoop filter with a single holder of the requested data.
system.membus.snoop_filter.tot_requests         69155                       # Total number of requests made to the snoop filter.
system.membus.snoop_filter.tot_snoops               0                       # Total number of snoops made to the snoop filter.
system.tol2bus.snoop_filter.hit_multi_requests         2085                       # Number of requests hitting in the snoop filter with multiple (>1) holders of the requested data.
system.tol2bus.snoop_filter.hit_multi_snoops            0                       # Number of snoops hitting in the snoop filter with multiple (>1) holders of the requested data.
system.tol2bus.snoop_filter.hit_single_requests        90208                       # Number of requests hitting in the snoop filter with a single holder of the requested data.
system.tol2bus.snoop_filter.hit_single_snoops          454                       # Number of snoops hitting in the snoop filter with a single holder of the requested data.
system.tol2bus.snoop_filter.tot_requests       181376                       # Total number of requests made to the snoop filter.
system.tol2bus.snoop_filter.tot_snoops            454                       # Total number of snoops made to the snoop filter.
system.clk_domain.clock                          1000                       # Clock period in ticks
system.cpu.branchPred.lookups                20361163                       # Number of BP lookups
system.cpu.branchPred.condPredicted          16298360                       # Number of conditional branches predicted
system.cpu.branchPred.condIncorrect             53703                       # Number of conditional branches incorrect
system.cpu.branchPred.BTBLookups              8737689                       # Number of BTB lookups
system.cpu.branchPred.BTBHits                 8736289                       # Number of BTB hits
system.cpu.branchPred.BTBHitPct             99.983977                       # BTB Hit Percentage
system.cpu.branchPred.RASUsed                 1050557                       # Number of times the RAS was used to get a target.
system.cpu.branchPred.RASIncorrect                326                       # Number of incorrect RAS predictions.
system.cpu.branchPred.indirectLookups          434276                       # Number of indirect predictor lookups.
system.cpu.branchPred.indirectHits             300028                       # Number of indirect target hits.
system.cpu.branchPred.indirectMisses           134248                       # Number of indirect misses.
system.cpu.branchPred.indirectMispredicted         1039                       # Number of mispredicted indirect branches.
system.cpu.dcache.demand_hits::.cpu.data     35563298                       # number of demand (read+write) hits
system.cpu.dcache.demand_hits::total         35563298                       # number of demand (read+write) hits
system.cpu.dcache.overall_hits::.cpu.data     35566543                       # number of overall hits
system.cpu.dcache.overall_hits::total        35566543                       # number of overall hits
system.cpu.dcache.demand_misses::.cpu.data       122807                       # number of demand (read+write) misses
system.cpu.dcache.demand_misses::total         122807                       # number of demand (read+write) misses
system.cpu.dcache.overall_misses::.cpu.data       122923                       # number of overall misses
system.cpu.dcache.overall_misses::total        122923                       # number of overall misses
system.cpu.dcache.demand_miss_latency::.cpu.data   5560999000                       # number of demand (read+write) miss cycles
system.cpu.dcache.demand_miss_latency::total   5560999000                       # number of demand (read+write) miss cycles
system.cpu.dcache.overall_miss_latency::.cpu.data   5560999000                       # number of overall miss cycles
system.cpu.dcache.overall_miss_latency::total   5560999000                       # number of overall miss cycles
system.cpu.dcache.demand_accesses::.cpu.data     35686105                       # number of demand (read+write) accesses
system.cpu.dcache.demand_accesses::total     35686105                       # number of demand (read+write) accesses
system.cpu.dcache.overall_accesses::.cpu.data     35689466                       # number of overall (read+write) accesses
system.cpu.dcache.overall_accesses::total     35689466                       # number of overall (read+write) accesses
system.cpu.dcache.demand_miss_rate::.cpu.data     0.003441                       # miss rate for demand accesses
system.cpu.dcache.demand_miss_rate::total     0.003441                       # miss rate for demand accesses
system.cpu.dcache.overall_miss_rate::.cpu.data     0.003444                       # miss rate for overall accesses
system.cpu.dcache.overall_miss_rate::total     0.003444                       # miss rate for overall accesses
system.cpu.dcache.demand_avg_miss_latency::.cpu.data 45282.426897                       # average overall miss latency
system.cpu.dcache.demand_avg_miss_latency::total 45282.426897                       # average overall miss latency
system.cpu.dcache.overall_avg_miss_latency::.cpu.data 45239.694768                       # average overall miss latency
system.cpu.dcache.overall_avg_miss_latency::total 45239.694768                       # average overall miss latency
system.cpu.dcache.blocked_cycles::no_mshrs            0                       # number of cycles access was blocked
system.cpu.dcache.blocked_cycles::no_targets            0                       # number of cycles access was blocked
system.cpu.dcache.blocked::no_mshrs                 0                       # number of cycles access was blocked
system.cpu.dcache.blocked::no_targets               0                       # number of cycles access was blocked
system.cpu.dcache.avg_blocked_cycles::no_mshrs          nan                       # average number of cycles each access was blocked
system.cpu.dcache.avg_blocked_cycles::no_targets          nan                       # average number of cycles each access was blocked
system.cpu.dcache.writebacks::.writebacks        72169                       # number of writebacks
system.cpu.dcache.writebacks::total             72169                       # number of writebacks
system.cpu.dcache.demand_mshr_hits::.cpu.data        32546                       # number of demand (read+write) MSHR hits
system.cpu.dcache.demand_mshr_hits::total        32546                       # number of demand (read+write) MSHR hits
system.cpu.dcache.overall_mshr_hits::.cpu.data        32546                       # number of overall MSHR hits
system.cpu.dcache.overall_mshr_hits::total        32546                       # number of overall MSHR hits
system.cpu.dcache.demand_mshr_misses::.cpu.data        90261                       # number of demand (read+write) MSHR misses
system.cpu.dcache.demand_mshr_misses::total        90261                       # number of demand (read+write) MSHR misses
system.cpu.dcache.overall_mshr_misses::.cpu.data        90372                       # number of overall MSHR misses
system.cpu.dcache.overall_mshr_misses::total        90372                       # number of overall MSHR misses
system.cpu.dcache.demand_mshr_miss_latency::.cpu.data   4234714000                       # number of demand (read+write) MSHR miss cycles
system.cpu.dcache.demand_mshr_miss_latency::total   4234714000                       # number of demand (read+write) MSHR miss cycles
system.cpu.dcache.overall_mshr_miss_latency::.cpu.data   4237066500                       # number of overall MSHR miss cycles
system.cpu.dcache.overall_mshr_miss_latency::total   4237066500                       # number of overall MSHR miss cycles
system.cpu.dcache.demand_mshr_miss_rate::.cpu.data     0.002529                       # mshr miss rate for demand accesses
system.cpu.dcache.demand_mshr_miss_rate::total     0.002529                       # mshr miss rate for demand accesses
system.cpu.dcache.overall_mshr_miss_rate::.cpu.data     0.002532                       # mshr miss rate for overall accesses
system.cpu.dcache.overall_mshr_miss_rate::total     0.002532                       # mshr miss rate for overall accesses
system.cpu.dcache.demand_avg_mshr_miss_latency::.cpu.data 46916.320448                       # average overall mshr miss latency
system.cpu.dcache.demand_avg_mshr_miss_latency::total 46916.320448                       # average overall mshr miss latency
system.cpu.dcache.overall_avg_mshr_miss_latency::.cpu.data 46884.726464                       # average overall mshr miss latency
system.cpu.dcache.overall_avg_mshr_miss_latency::total 46884.726464                       # average overall mshr miss latency
system.cpu.dcache.replacements                  89890                       # number of replacements
system.cpu.dcache.ReadReq_hits::.cpu.data     21379620                       # number of ReadReq hits
system.cpu.dcache.ReadReq_hits::total        21379620                       # number of ReadReq hits
system.cpu.dcache.ReadReq_misses::.cpu.data        52232                       # number of ReadReq misses
system.cpu.dcache.ReadReq_misses::total         52232                       # number of ReadReq misses
system.cpu.dcache.ReadReq_miss_latency::.cpu.data   1009753000                       # number of ReadReq miss cycles
system.cpu.dcache.ReadReq_miss_latency::total   1009753000                       # number of ReadReq miss cycles
system.cpu.dcache.ReadReq_accesses::.cpu.data     21431852                       # number of ReadReq accesses(hits+misses)
system.cpu.dcache.ReadReq_accesses::total     21431852                       # number of ReadReq accesses(hits+misses)
system.cpu.dcache.ReadReq_miss_rate::.cpu.data     0.002437                       # miss rate for ReadReq accesses
system.cpu.dcache.ReadReq_miss_rate::total     0.002437                       # miss rate for ReadReq accesses
system.cpu.dcache.ReadReq_avg_miss_latency::.cpu.data 19332.076122                       # average ReadReq miss latency
system.cpu.dcache.ReadReq_avg_miss_latency::total 19332.076122                       # average ReadReq miss latency
system.cpu.dcache.ReadReq_mshr_hits::.cpu.data         9450                       # number of ReadReq MSHR hits
system.cpu.dcache.ReadReq_mshr_hits::total         9450                       # number of ReadReq MSHR hits
system.cpu.dcache.ReadReq_mshr_misses::.cpu.data        42782                       # number of ReadReq MSHR misses
system.cpu.dcache.ReadReq_mshr_misses::total        42782                       # number of ReadReq MSHR misses
system.cpu.dcache.ReadReq_mshr_miss_latency::.cpu.data    824133000                       # number of ReadReq MSHR miss cycles
system.cpu.dcache.ReadReq_mshr_miss_latency::total    824133000                       # number of ReadReq MSHR miss cycles
system.cpu.dcache.ReadReq_mshr_miss_rate::.cpu.data     0.001996                       # mshr miss rate for ReadReq accesses
system.cpu.dcache.ReadReq_mshr_miss_rate::total     0.001996                       # mshr miss rate for ReadReq accesses
system.cpu.dcache.ReadReq_avg_mshr_miss_latency::.cpu.data 19263.545416                       # average ReadReq mshr miss latency
system.cpu.dcache.ReadReq_avg_mshr_miss_latency::total 19263.545416                       # average ReadReq mshr miss latency
system.cpu.dcache.WriteReq_hits::.cpu.data     14183678                       # number of WriteReq hits
system.cpu.dcache.WriteReq_hits::total       14183678                       # number of WriteReq hits
system.cpu.dcache.WriteReq_misses::.cpu.data        70575                       # number of WriteReq misses
system.cpu.dcache.WriteReq_misses::total        70575                       # number of WriteReq misses
system.cpu.dcache.WriteReq_miss_latency::.cpu.data   4551246000                       # number of WriteReq miss cycles
system.cpu.dcache.WriteReq_miss_latency::total   4551246000                       # number of WriteReq miss cycles
system.cpu.dcache.WriteReq_accesses::.cpu.data     14254253                       # number of WriteReq accesses(hits+misses)
system.cpu.dcache.WriteReq_accesses::total     14254253                       # number of WriteReq accesses(hits+misses)
system.cpu.dcache.WriteReq_miss_rate::.cpu.data     0.004951                       # miss rate for WriteReq accesses
system.cpu.dcache.WriteReq_miss_rate::total     0.004951                       # miss rate for WriteReq accesses
system.cpu.dcache.WriteReq_avg_miss_latency::.cpu.data 64488.076514                       # average WriteReq miss latency
system.cpu.dcache.WriteReq_avg_miss_latency::total 64488.076514                       # average WriteReq miss latency
system.cpu.dcache.WriteReq_mshr_hits::.cpu.data        23096                       # number of WriteReq MSHR hits
system.cpu.dcache.WriteReq_mshr_hits::total        23096                       # number of WriteReq MSHR hits
system.cpu.dcache.WriteReq_mshr_misses::.cpu.data        47479                       # number of WriteReq MSHR misses
system.cpu.dcache.WriteReq_mshr_misses::total        47479                       # number of WriteReq MSHR misses
system.cpu.dcache.WriteReq_mshr_miss_latency::.cpu.data   3410581000                       # number of WriteReq MSHR miss cycles
system.cpu.dcache.WriteReq_mshr_miss_latency::total   3410581000                       # number of WriteReq MSHR miss cycles
system.cpu.dcache.WriteReq_mshr_miss_rate::.cpu.data     0.003331                       # mshr miss rate for WriteReq accesses
system.cpu.dcache.WriteReq_mshr_miss_rate::total     0.003331                       # mshr miss rate for WriteReq accesses
system.cpu.dcache.WriteReq_avg_mshr_miss_latency::.cpu.data 71833.463215                       # average WriteReq mshr miss latency
system.cpu.dcache.WriteReq_avg_mshr_miss_latency::total 71833.463215                       # average WriteReq mshr miss latency
system.cpu.dcache.SoftPFReq_hits::.cpu.data         3245                       # number of SoftPFReq hits
system.cpu.dcache.SoftPFReq_hits::total          3245                       # number of SoftPFReq hits
system.cpu.dcache.SoftPFReq_misses::.cpu.data          116                       # number of SoftPFReq misses
system.cpu.dcache.SoftPFReq_misses::total          116                       # number of SoftPFReq misses
system.cpu.dcache.SoftPFReq_accesses::.cpu.data         3361                       # number of SoftPFReq accesses(hits+misses)
system.cpu.dcache.SoftPFReq_accesses::total         3361                       # number of SoftPFReq accesses(hits+misses)
system.cpu.dcache.SoftPFReq_miss_rate::.cpu.data     0.034514                       # miss rate for SoftPFReq accesses
system.cpu.dcache.SoftPFReq_miss_rate::total     0.034514                       # miss rate for SoftPFReq accesses
system.cpu.dcache.SoftPFReq_mshr_misses::.cpu.data          111                       # number of SoftPFReq MSHR misses
system.cpu.dcache.SoftPFReq_mshr_misses::total          111                       # number of SoftPFReq MSHR misses
system.cpu.dcache.SoftPFReq_mshr_miss_latency::.cpu.data      2352500                       # number of SoftPFReq MSHR miss cycles
system.cpu.dcache.SoftPFReq_mshr_miss_latency::total      2352500                       # number of SoftPFReq MSHR miss cycles
system.cpu.dcache.SoftPFReq_mshr_miss_rate::.cpu.data     0.033026                       # mshr miss rate for SoftPFReq accesses
system.cpu.dcache.SoftPFReq_mshr_miss_rate::total     0.033026                       # mshr miss rate for SoftPFReq accesses
system.cpu.dcache.SoftPFReq_avg_mshr_miss_latency::.cpu.data 21193.693694                       # average SoftPFReq mshr miss latency
system.cpu.dcache.SoftPFReq_avg_mshr_miss_latency::total 21193.693694                       # average SoftPFReq mshr miss latency
system.cpu.dcache.LoadLockedReq_hits::.cpu.data        89077                       # number of LoadLockedReq hits
system.cpu.dcache.LoadLockedReq_hits::total        89077                       # number of LoadLockedReq hits
system.cpu.dcache.LoadLockedReq_misses::.cpu.data           30                       # number of LoadLockedReq misses
system.cpu.dcache.LoadLockedReq_misses::total           30                       # number of LoadLockedReq misses
system.cpu.dcache.LoadLockedReq_miss_latency::.cpu.data       828000                       # number of LoadLockedReq miss cycles
system.cpu.dcache.LoadLockedReq_miss_latency::total       828000                       # number of LoadLockedReq miss cycles
system.cpu.dcache.LoadLockedReq_accesses::.cpu.data        89107                       # number of LoadLockedReq accesses(hits+misses)
system.cpu.dcache.LoadLockedReq_accesses::total        89107                       # number of LoadLockedReq accesses(hits+misses)
system.cpu.dcache.LoadLockedReq_miss_rate::.cpu.data     0.000337                       # miss rate for LoadLockedReq accesses
system.cpu.dcache.LoadLockedReq_miss_rate::total     0.000337                       # miss rate for LoadLockedReq accesses
system.cpu.dcache.LoadLockedReq_avg_miss_latency::.cpu.data        27600                       # average LoadLockedReq miss latency
system.cpu.dcache.LoadLockedReq_avg_miss_latency::total        27600                       # average LoadLockedReq miss latency
system.cpu.dcache.LoadLockedReq_mshr_misses::.cpu.data           30                       # number of LoadLockedReq MSHR misses
system.cpu.dcache.LoadLockedReq_mshr_misses::total           30                       # number of LoadLockedReq MSHR misses
system.cpu.dcache.LoadLockedReq_mshr_miss_latency::.cpu.data       798000                       # number of LoadLockedReq MSHR miss cycles
system.cpu.dcache.LoadLockedReq_mshr_miss_latency::total       798000                       # number of LoadLockedReq MSHR miss cycles
system.cpu.dcache.LoadLockedReq_mshr_miss_rate::.cpu.data     0.000337                       # mshr miss rate for LoadLockedReq accesses
system.cpu.dcache.LoadLockedReq_mshr_miss_rate::total     0.000337                       # mshr miss rate for LoadLockedReq accesses
system.cpu.dcache.LoadLockedReq_avg_mshr_miss_latency::.cpu.data        26600                       # average LoadLockedReq mshr miss latency
system.cpu.dcache.LoadLockedReq_avg_mshr_miss_latency::total        26600                       # average LoadLockedReq mshr miss latency
system.cpu.dcache.StoreCondReq_hits::.cpu.data        89080                       # number of StoreCondReq hits
system.cpu.dcache.StoreCondReq_hits::total        89080                       # number of StoreCondReq hits
system.cpu.dcache.StoreCondReq_accesses::.cpu.data        89080                       # number of StoreCondReq accesses(hits+misses)
system.cpu.dcache.StoreCondReq_accesses::total        89080                       # number of StoreCondReq accesses(hits+misses)
system.cpu.dcache.power_state.pwrStateResidencyTicks::UNDEFINED  57671597000                       # Cumulative time (in ticks) in various power states
system.cpu.dcache.tags.tagsinuse           510.948194                       # Cycle average of tags in use
system.cpu.dcache.tags.total_refs            35835102                       # Total number of references to valid blocks.
system.cpu.dcache.tags.sampled_refs             90402                       # Sample count of references to valid blocks.
system.cpu.dcache.tags.avg_refs            396.397226                       # Average number of references to valid blocks.
system.cpu.dcache.tags.warmup_cycle            176500                       # Cycle when the warmup percentage was hit.
system.cpu.dcache.tags.occ_blocks::.cpu.data   510.948194                       # Average occupied blocks per requestor
system.cpu.dcache.tags.occ_percent::.cpu.data     0.997946                       # Average percentage of cache occupancy
system.cpu.dcache.tags.occ_percent::total     0.997946                       # Average percentage of cache occupancy
system.cpu.dcache.tags.occ_task_id_blocks::1024          512                       # Occupied blocks per task id
system.cpu.dcache.tags.age_task_id_blocks_1024::0            7                       # Occupied blocks per task id
system.cpu.dcache.tags.age_task_id_blocks_1024::1           64                       # Occupied blocks per task id
system.cpu.dcache.tags.age_task_id_blocks_1024::2          384                       # Occupied blocks per task id
system.cpu.dcache.tags.age_task_id_blocks_1024::3           57                       # Occupied blocks per task id
system.cpu.dcache.tags.occ_task_id_percent::1024            1                       # Percentage of cache occupancy per task id
system.cpu.dcache.tags.tag_accesses          35958055                       # Number of tag accesses
system.cpu.dcache.tags.data_accesses         35958055                       # Number of data accesses
system.cpu.dcache.tags.power_state.pwrStateResidencyTicks::UNDEFINED  57671597000                       # Cumulative time (in ticks) in various power states
system.cpu.dtb.instHits                             0                       # ITB inst hits
system.cpu.dtb.instMisses                           0                       # ITB inst misses
system.cpu.dtb.readHits                             0                       # DTB read hits
system.cpu.dtb.readMisses                           0                       # DTB read misses
system.cpu.dtb.writeHits                            0                       # DTB write hits
system.cpu.dtb.writeMisses                          0                       # DTB write misses
system.cpu.dtb.inserts                              0                       # Number of times an entry is inserted into the TLB
system.cpu.dtb.flushTlb                             0                       # Number of times complete TLB was flushed
system.cpu.dtb.flushTlbMva                          0                       # Number of times TLB was flushed by MVA
system.cpu.dtb.flushTlbMvaAsid                      0                       # Number of times TLB was flushed by MVA & ASID
system.cpu.dtb.flushTlbAsid                         0                       # Number of times TLB was flushed by ASID
system.cpu.dtb.flushedEntries                       0                       # Number of entries that have been flushed from TLB
system.cpu.dtb.alignFaults                          0                       # Number of TLB faults due to alignment restrictions
system.cpu.dtb.prefetchFaults                       0                       # Number of TLB faults due to prefetch
system.cpu.dtb.domainFaults                         0                       # Number of TLB faults due to domain restrictions
system.cpu.dtb.permsFaults                          0                       # Number of TLB faults due to permissions restrictions
system.cpu.dtb.readAccesses                         0                       # DTB read accesses
system.cpu.dtb.writeAccesses                        0                       # DTB write accesses
system.cpu.dtb.instAccesses                         0                       # ITB inst accesses
system.cpu.dtb.hits                                 0                       # Total TLB (inst and data) hits
system.cpu.dtb.misses                               0                       # Total TLB (inst and data) misses
system.cpu.dtb.accesses                             0                       # Total TLB (inst and data) accesses
system.cpu.dtb.stage2_mmu.stage2_tlb.instHits            0                       # ITB inst hits
system.cpu.dtb.stage2_mmu.stage2_tlb.instMisses            0                       # ITB inst misses
system.cpu.dtb.stage2_mmu.stage2_tlb.readHits            0                       # DTB read hits
system.cpu.dtb.stage2_mmu.stage2_tlb.readMisses            0                       # DTB read misses
system.cpu.dtb.stage2_mmu.stage2_tlb.writeHits            0                       # DTB write hits
system.cpu.dtb.stage2_mmu.stage2_tlb.writeMisses            0                       # DTB write misses
system.cpu.dtb.stage2_mmu.stage2_tlb.inserts            0                       # Number of times an entry is inserted into the TLB
system.cpu.dtb.stage2_mmu.stage2_tlb.flushTlb            0                       # Number of times complete TLB was flushed
system.cpu.dtb.stage2_mmu.stage2_tlb.flushTlbMva            0                       # Number of times TLB was flushed by MVA
system.cpu.dtb.stage2_mmu.stage2_tlb.flushTlbMvaAsid            0                       # Number of times TLB was flushed by MVA & ASID
system.cpu.dtb.stage2_mmu.stage2_tlb.flushTlbAsid            0                       # Number of times TLB was flushed by ASID
system.cpu.dtb.stage2_mmu.stage2_tlb.flushedEntries            0                       # Number of entries that have been flushed from TLB
system.cpu.dtb.stage2_mmu.stage2_tlb.alignFaults            0                       # Number of TLB faults due to alignment restrictions
system.cpu.dtb.stage2_mmu.stage2_tlb.prefetchFaults            0                       # Number of TLB faults due to prefetch
system.cpu.dtb.stage2_mmu.stage2_tlb.domainFaults            0                       # Number of TLB faults due to domain restrictions
system.cpu.dtb.stage2_mmu.stage2_tlb.permsFaults            0                       # Number of TLB faults due to permissions restrictions
system.cpu.dtb.stage2_mmu.stage2_tlb.readAccesses            0                       # DTB read accesses
system.cpu.dtb.stage2_mmu.stage2_tlb.writeAccesses            0                       # DTB write accesses
system.cpu.dtb.stage2_mmu.stage2_tlb.instAccesses            0                       # ITB inst accesses
system.cpu.dtb.stage2_mmu.stage2_tlb.hits            0                       # Total TLB (inst and data) hits
system.cpu.dtb.stage2_mmu.stage2_tlb.misses            0                       # Total TLB (inst and data) misses
system.cpu.dtb.stage2_mmu.stage2_tlb.accesses            0                       # Total TLB (inst and data) accesses
system.cpu.dtb.stage2_mmu.stage2_tlb.walker.walks            0                       # Table walker walks requested
system.cpu.dtb.stage2_mmu.stage2_tlb.walker.requestOrigin_Requested::Data            0                       # Table walker requests started/completed, data/inst
system.cpu.dtb.stage2_mmu.stage2_tlb.walker.requestOrigin_Requested::Inst            0                       # Table walker requests started/completed, data/inst
system.cpu.dtb.stage2_mmu.stage2_tlb.walker.requestOrigin_Requested::total            0                       # Table walker requests started/completed, data/inst
system.cpu.dtb.stage2_mmu.stage2_tlb.walker.requestOrigin_Completed::Data            0                       # Table walker requests started/completed, data/inst
system.cpu.dtb.stage2_mmu.stage2_tlb.walker.requestOrigin_Completed::Inst            0                       # Table walker requests started/completed, data/inst
system.cpu.dtb.stage2_mmu.stage2_tlb.walker.requestOrigin_Completed::total            0                       # Table walker requests started/completed, data/inst
system.cpu.dtb.stage2_mmu.stage2_tlb.walker.requestOrigin::total            0                       # Table walker requests started/completed, data/inst
system.cpu.dtb.stage2_mmu.stage2_tlb.walker.power_state.pwrStateResidencyTicks::UNDEFINED  57671597000                       # Cumulative time (in ticks) in various power states
system.cpu.dtb.walker.walks                         0                       # Table walker walks requested
system.cpu.dtb.walker.requestOrigin_Requested::Data            0                       # Table walker requests started/completed, data/inst
system.cpu.dtb.walker.requestOrigin_Requested::Inst            0                       # Table walker requests started/completed, data/inst
system.cpu.dtb.walker.requestOrigin_Requested::total            0                       # Table walker requests started/completed, data/inst
system.cpu.dtb.walker.requestOrigin_Completed::Data            0                       # Table walker requests started/completed, data/inst
system.cpu.dtb.walker.requestOrigin_Completed::Inst            0                       # Table walker requests started/completed, data/inst
system.cpu.dtb.walker.requestOrigin_Completed::total            0                       # Table walker requests started/completed, data/inst
system.cpu.dtb.walker.requestOrigin::total            0                       # Table walker requests started/completed, data/inst
system.cpu.dtb.walker.power_state.pwrStateResidencyTicks::UNDEFINED  57671597000                       # Cumulative time (in ticks) in various power states
system.cpu.fetch2.intInstructions            49239863                       # Number of integer instructions successfully decoded
system.cpu.fetch2.fpInstructions                    0                       # Number of floating point instructions successfully decoded
system.cpu.fetch2.vecInstructions                   0                       # Number of SIMD instructions successfully decoded
system.cpu.fetch2.loadInstructions           17106746                       # Number of memory load instructions successfully decoded
system.cpu.fetch2.storeInstructions           9764219                       # Number of memory store instructions successfully decoded
system.cpu.fetch2.amoInstructions                   0                       # Number of memory atomic instructions successfully decoded
system.cpu.icache.demand_hits::.cpu.inst     28367525                       # number of demand (read+write) hits
system.cpu.icache.demand_hits::total         28367525                       # number of demand (read+write) hits
system.cpu.icache.overall_hits::.cpu.inst     28367525                       # number of overall hits
system.cpu.icache.overall_hits::total        28367525                       # number of overall hits
system.cpu.icache.demand_misses::.cpu.inst          770                       # number of demand (read+write) misses
system.cpu.icache.demand_misses::total            770                       # number of demand (read+write) misses
system.cpu.icache.overall_misses::.cpu.inst          770                       # number of overall misses
system.cpu.icache.overall_misses::total           770                       # number of overall misses
system.cpu.icache.demand_miss_latency::.cpu.inst     44396500                       # number of demand (read+write) miss cycles
system.cpu.icache.demand_miss_latency::total     44396500                       # number of demand (read+write) miss cycles
system.cpu.icache.overall_miss_latency::.cpu.inst     44396500                       # number of overall miss cycles
system.cpu.icache.overall_miss_latency::total     44396500                       # number of overall miss cycles
system.cpu.icache.demand_accesses::.cpu.inst     28368295                       # number of demand (read+write) accesses
system.cpu.icache.demand_accesses::total     28368295                       # number of demand (read+write) accesses
system.cpu.icache.overall_accesses::.cpu.inst     28368295                       # number of overall (read+write) accesses
system.cpu.icache.overall_accesses::total     28368295                       # number of overall (read+write) accesses
system.cpu.icache.demand_miss_rate::.cpu.inst     0.000027                       # miss rate for demand accesses
system.cpu.icache.demand_miss_rate::total     0.000027                       # miss rate for demand accesses
system.cpu.icache.overall_miss_rate::.cpu.inst     0.000027                       # miss rate for overall accesses
system.cpu.icache.overall_miss_rate::total     0.000027                       # miss rate for overall accesses
system.cpu.icache.demand_avg_miss_latency::.cpu.inst 57657.792208                       # average overall miss latency
system.cpu.icache.demand_avg_miss_latency::total 57657.792208                       # average overall miss latency
system.cpu.icache.overall_avg_miss_latency::.cpu.inst 57657.792208                       # average overall miss latency
system.cpu.icache.overall_avg_miss_latency::total 57657.792208                       # average overall miss latency
system.cpu.icache.blocked_cycles::no_mshrs            0                       # number of cycles access was blocked
system.cpu.icache.blocked_cycles::no_targets            0                       # number of cycles access was blocked
system.cpu.icache.blocked::no_mshrs                 0                       # number of cycles access was blocked
system.cpu.icache.blocked::no_targets               0                       # number of cycles access was blocked
system.cpu.icache.avg_blocked_cycles::no_mshrs          nan                       # average number of cycles each access was blocked
system.cpu.icache.avg_blocked_cycles::no_targets          nan                       # average number of cycles each access was blocked
system.cpu.icache.writebacks::.writebacks          314                       # number of writebacks
system.cpu.icache.writebacks::total               314                       # number of writebacks
system.cpu.icache.demand_mshr_misses::.cpu.inst          770                       # number of demand (read+write) MSHR misses
system.cpu.icache.demand_mshr_misses::total          770                       # number of demand (read+write) MSHR misses
system.cpu.icache.overall_mshr_misses::.cpu.inst          770                       # number of overall MSHR misses
system.cpu.icache.overall_mshr_misses::total          770                       # number of overall MSHR misses
system.cpu.icache.demand_mshr_miss_latency::.cpu.inst     43626500                       # number of demand (read+write) MSHR miss cycles
system.cpu.icache.demand_mshr_miss_latency::total     43626500                       # number of demand (read+write) MSHR miss cycles
system.cpu.icache.overall_mshr_miss_latency::.cpu.inst     43626500                       # number of overall MSHR miss cycles
system.cpu.icache.overall_mshr_miss_latency::total     43626500                       # number of overall MSHR miss cycles
system.cpu.icache.demand_mshr_miss_rate::.cpu.inst     0.000027                       # mshr miss rate for demand accesses
system.cpu.icache.demand_mshr_miss_rate::total     0.000027                       # mshr miss rate for demand accesses
system.cpu.icache.overall_mshr_miss_rate::.cpu.inst     0.000027                       # mshr miss rate for overall accesses
system.cpu.icache.overall_mshr_miss_rate::total     0.000027                       # mshr miss rate for overall accesses
system.cpu.icache.demand_avg_mshr_miss_latency::.cpu.inst 56657.792208                       # average overall mshr miss latency
system.cpu.icache.demand_avg_mshr_miss_latency::total 56657.792208                       # average overall mshr miss latency
system.cpu.icache.overall_avg_mshr_miss_latency::.cpu.inst 56657.792208                       # average overall mshr miss latency
system.cpu.icache.overall_avg_mshr_miss_latency::total 56657.792208                       # average overall mshr miss latency
system.cpu.icache.replacements                    314                       # number of replacements
system.cpu.icache.ReadReq_hits::.cpu.inst     28367525                       # number of ReadReq hits
system.cpu.icache.ReadReq_hits::total        28367525                       # number of ReadReq hits
system.cpu.icache.ReadReq_misses::.cpu.inst          770                       # number of ReadReq misses
system.cpu.icache.ReadReq_misses::total           770                       # number of ReadReq misses
system.cpu.icache.ReadReq_miss_latency::.cpu.inst     44396500                       # number of ReadReq miss cycles
system.cpu.icache.ReadReq_miss_latency::total     44396500                       # number of ReadReq miss cycles
system.cpu.icache.ReadReq_accesses::.cpu.inst     28368295                       # number of ReadReq accesses(hits+misses)
system.cpu.icache.ReadReq_accesses::total     28368295                       # number of ReadReq accesses(hits+misses)
system.cpu.icache.ReadReq_miss_rate::.cpu.inst     0.000027                       # miss rate for ReadReq accesses
system.cpu.icache.ReadReq_miss_rate::total     0.000027                       # miss rate for ReadReq accesses
system.cpu.icache.ReadReq_avg_miss_latency::.cpu.inst 57657.792208                       # average ReadReq miss latency
system.cpu.icache.ReadReq_avg_miss_latency::total 57657.792208                       # average ReadReq miss latency
system.cpu.icache.ReadReq_mshr_misses::.cpu.inst          770                       # number of ReadReq MSHR misses
system.cpu.icache.ReadReq_mshr_misses::total          770                       # number of ReadReq MSHR misses
system.cpu.icache.ReadReq_mshr_miss_latency::.cpu.inst     43626500                       # number of ReadReq MSHR miss cycles
system.cpu.icache.ReadReq_mshr_miss_latency::total     43626500                       # number of ReadReq MSHR miss cycles
system.cpu.icache.ReadReq_mshr_miss_rate::.cpu.inst     0.000027                       # mshr miss rate for ReadReq accesses
system.cpu.icache.ReadReq_mshr_miss_rate::total     0.000027                       # mshr miss rate for ReadReq accesses
system.cpu.icache.ReadReq_avg_mshr_miss_latency::.cpu.inst 56657.792208                       # average ReadReq mshr miss latency
system.cpu.icache.ReadReq_avg_mshr_miss_latency::total 56657.792208                       # average ReadReq mshr miss latency
system.cpu.icache.power_state.pwrStateResidencyTicks::UNDEFINED  57671597000                       # Cumulative time (in ticks) in various power states
system.cpu.icache.tags.tagsinuse           455.244712                       # Cycle average of tags in use
system.cpu.icache.tags.total_refs            28368295                       # Total number of references to valid blocks.
system.cpu.icache.tags.sampled_refs               770                       # Sample count of references to valid blocks.
system.cpu.icache.tags.avg_refs          36841.941558                       # Average number of references to valid blocks.
system.cpu.icache.tags.warmup_cycle             87500                       # Cycle when the warmup percentage was hit.
system.cpu.icache.tags.occ_blocks::.cpu.inst   455.244712                       # Average occupied blocks per requestor
system.cpu.icache.tags.occ_percent::.cpu.inst     0.444575                       # Average percentage of cache occupancy
system.cpu.icache.tags.occ_percent::total     0.444575                       # Average percentage of cache occupancy
system.cpu.icache.tags.occ_task_id_blocks::1024          456                       # Occupied blocks per task id
system.cpu.icache.tags.age_task_id_blocks_1024::2            1                       # Occupied blocks per task id
system.cpu.icache.tags.age_task_id_blocks_1024::4          455                       # Occupied blocks per task id
system.cpu.icache.tags.occ_task_id_percent::1024     0.445312                       # Percentage of cache occupancy per task id
system.cpu.icache.tags.tag_accesses          28369065                       # Number of tag accesses
system.cpu.icache.tags.data_accesses         28369065                       # Number of data accesses
system.cpu.icache.tags.power_state.pwrStateResidencyTicks::UNDEFINED  57671597000                       # Cumulative time (in ticks) in various power states
system.cpu.itb.instHits                             0                       # ITB inst hits
system.cpu.itb.instMisses                           0                       # ITB inst misses
system.cpu.itb.readHits                             0                       # DTB read hits
system.cpu.itb.readMisses                           0                       # DTB read misses
system.cpu.itb.writeHits                            0                       # DTB write hits
system.cpu.itb.writeMisses                          0                       # DTB write misses
system.cpu.itb.inserts                              0                       # Number of times an entry is inserted into the TLB
system.cpu.itb.flushTlb                             0                       # Number of times complete TLB was flushed
system.cpu.itb.flushTlbMva                          0                       # Number of times TLB was flushed by MVA
system.cpu.itb.flushTlbMvaAsid                      0                       # Number of times TLB was flushed by MVA & ASID
system.cpu.itb.flushTlbAsid                         0                       # Number of times TLB was flushed by ASID
system.cpu.itb.flushedEntries                       0                       # Number of entries that have been flushed from TLB
system.cpu.itb.alignFaults                          0                       # Number of TLB faults due to alignment restrictions
system.cpu.itb.prefetchFaults                       0                       # Number of TLB faults due to prefetch
system.cpu.itb.domainFaults                         0                       # Number of TLB faults due to domain restrictions
system.cpu.itb.permsFaults                          0                       # Number of TLB faults due to permissions restrictions
system.cpu.itb.readAccesses                         0                       # DTB read accesses
system.cpu.itb.writeAccesses                        0                       # DTB write accesses
system.cpu.itb.instAccesses                         0                       # ITB inst accesses
system.cpu.itb.hits                                 0                       # Total TLB (inst and data) hits
system.cpu.itb.misses                               0                       # Total TLB (inst and data) misses
system.cpu.itb.accesses                             0                       # Total TLB (inst and data) accesses
system.cpu.itb.stage2_mmu.stage2_tlb.instHits            0                       # ITB inst hits
system.cpu.itb.stage2_mmu.stage2_tlb.instMisses            0                       # ITB inst misses
system.cpu.itb.stage2_mmu.stage2_tlb.readHits            0                       # DTB read hits
system.cpu.itb.stage2_mmu.stage2_tlb.readMisses            0                       # DTB read misses
system.cpu.itb.stage2_mmu.stage2_tlb.writeHits            0                       # DTB write hits
system.cpu.itb.stage2_mmu.stage2_tlb.writeMisses            0                       # DTB write misses
system.cpu.itb.stage2_mmu.stage2_tlb.inserts            0                       # Number of times an entry is inserted into the TLB
system.cpu.itb.stage2_mmu.stage2_tlb.flushTlb            0                       # Number of times complete TLB was flushed
system.cpu.itb.stage2_mmu.stage2_tlb.flushTlbMva            0                       # Number of times TLB was flushed by MVA
system.cpu.itb.stage2_mmu.stage2_tlb.flushTlbMvaAsid            0                       # Number of times TLB was flushed by MVA & ASID
system.cpu.itb.stage2_mmu.stage2_tlb.flushTlbAsid            0                       # Number of times TLB was flushed by ASID
system.cpu.itb.stage2_mmu.stage2_tlb.flushedEntries            0                       # Number of entries that have been flushed from TLB
system.cpu.itb.stage2_mmu.stage2_tlb.alignFaults            0                       # Number of TLB faults due to alignment restrictions
system.cpu.itb.stage2_mmu.stage2_tlb.prefetchFaults            0                       # Number of TLB faults due to prefetch
system.cpu.itb.stage2_mmu.stage2_tlb.domainFaults            0                       # Number of TLB faults due to domain restrictions
system.cpu.itb.stage2_mmu.stage2_tlb.permsFaults            0                       # Number of TLB faults due to permissions restrictions
system.cpu.itb.stage2_mmu.stage2_tlb.readAccesses            0                       # DTB read accesses
system.cpu.itb.stage2_mmu.stage2_tlb.writeAccesses            0                       # DTB write accesses
system.cpu.itb.stage2_mmu.stage2_tlb.instAccesses            0                       # ITB inst accesses
system.cpu.itb.stage2_mmu.stage2_tlb.hits            0                       # Total TLB (inst and data) hits
system.cpu.itb.stage2_mmu.stage2_tlb.misses            0                       # Total TLB (inst and data) misses
system.cpu.itb.stage2_mmu.stage2_tlb.accesses            0                       # Total TLB (inst and data) accesses
system.cpu.itb.stage2_mmu.stage2_tlb.walker.walks            0                       # Table walker walks requested
system.cpu.itb.stage2_mmu.stage2_tlb.walker.requestOrigin_Requested::Data            0                       # Table walker requests started/completed, data/inst
system.cpu.itb.stage2_mmu.stage2_tlb.walker.requestOrigin_Requested::Inst            0                       # Table walker requests started/completed, data/inst
system.cpu.itb.stage2_mmu.stage2_tlb.walker.requestOrigin_Requested::total            0                       # Table walker requests started/completed, data/inst
system.cpu.itb.stage2_mmu.stage2_tlb.walker.requestOrigin_Completed::Data            0                       # Table walker requests started/completed, data/inst
system.cpu.itb.stage2_mmu.stage2_tlb.walker.requestOrigin_Completed::Inst            0                       # Table walker requests started/completed, data/inst
system.cpu.itb.stage2_mmu.stage2_tlb.walker.requestOrigin_Completed::total            0                       # Table walker requests started/completed, data/inst
system.cpu.itb.stage2_mmu.stage2_tlb.walker.requestOrigin::total            0                       # Table walker requests started/completed, data/inst
system.cpu.itb.stage2_mmu.stage2_tlb.walker.power_state.pwrStateResidencyTicks::UNDEFINED  57671597000                       # Cumulative time (in ticks) in various power states
system.cpu.itb.walker.walks                         0                       # Table walker walks requested
system.cpu.itb.walker.requestOrigin_Requested::Data            0                       # Table walker requests started/completed, data/inst
system.cpu.itb.walker.requestOrigin_Requested::Inst            0                       # Table walker requests started/completed, data/inst
system.cpu.itb.walker.requestOrigin_Requested::total            0                       # Table walker requests started/completed, data/inst
system.cpu.itb.walker.requestOrigin_Completed::Data            0                       # Table walker requests started/completed, data/inst
system.cpu.itb.walker.requestOrigin_Completed::Inst            0                       # Table walker requests started/completed, data/inst
system.cpu.itb.walker.requestOrigin_Completed::total            0                       # Table walker requests started/completed, data/inst
system.cpu.itb.walker.requestOrigin::total            0                       # Table walker requests started/completed, data/inst
system.cpu.itb.walker.power_state.pwrStateResidencyTicks::UNDEFINED  57671597000                       # Cumulative time (in ticks) in various power states
system.cpu.power_state.pwrStateResidencyTicks::ON  57671597000                       # Cumulative time (in ticks) in various power states
system.cpu.thread0.numInsts                 100000000                       # Number of Instructions committed
system.cpu.thread0.numOps                   109431273                       # Number of Ops committed
system.cpu.thread0.numMemRefs                       0                       # Number of Memory References
system.cpu_clk_domain.clock                       500                       # Clock period in ticks
system.cpu_voltage_domain.voltage                   1                       # Voltage in Volts
system.l2.demand_hits::.cpu.inst                  249                       # number of demand (read+write) hits
system.l2.demand_hits::.cpu.data                47922                       # number of demand (read+write) hits
system.l2.demand_hits::total                    48171                       # number of demand (read+write) hits
system.l2.overall_hits::.cpu.inst                 249                       # number of overall hits
system.l2.overall_hits::.cpu.data               47922                       # number of overall hits
system.l2.overall_hits::total                   48171                       # number of overall hits
system.l2.demand_misses::.cpu.inst                521                       # number of demand (read+write) misses
system.l2.demand_misses::.cpu.data              42480                       # number of demand (read+write) misses
system.l2.demand_misses::total                  43001                       # number of demand (read+write) misses
system.l2.overall_misses::.cpu.inst               521                       # number of overall misses
system.l2.overall_misses::.cpu.data             42480                       # number of overall misses
system.l2.overall_misses::total                 43001                       # number of overall misses
system.l2.demand_miss_latency::.cpu.inst     39850500                       # number of demand (read+write) miss cycles
system.l2.demand_miss_latency::.cpu.data   3560713000                       # number of demand (read+write) miss cycles
system.l2.demand_miss_latency::total       3600563500                       # number of demand (read+write) miss cycles
system.l2.overall_miss_latency::.cpu.inst     39850500                       # number of overall miss cycles
system.l2.overall_miss_latency::.cpu.data   3560713000                       # number of overall miss cycles
system.l2.overall_miss_latency::total      3600563500                       # number of overall miss cycles
system.l2.demand_accesses::.cpu.inst              770                       # number of demand (read+write) accesses
system.l2.demand_accesses::.cpu.data            90402                       # number of demand (read+write) accesses
system.l2.demand_accesses::total                91172                       # number of demand (read+write) accesses
system.l2.overall_accesses::.cpu.inst             770                       # number of overall (read+write) accesses
system.l2.overall_accesses::.cpu.data           90402                       # number of overall (read+write) accesses
system.l2.overall_accesses::total               91172                       # number of overall (read+write) accesses
system.l2.demand_miss_rate::.cpu.inst        0.676623                       # miss rate for demand accesses
system.l2.demand_miss_rate::.cpu.data        0.469901                       # miss rate for demand accesses
system.l2.demand_miss_rate::total            0.471647                       # miss rate for demand accesses
system.l2.overall_miss_rate::.cpu.inst       0.676623                       # miss rate for overall accesses
system.l2.overall_miss_rate::.cpu.data       0.469901                       # miss rate for overall accesses
system.l2.overall_miss_rate::total           0.471647                       # miss rate for overall accesses
system.l2.demand_avg_miss_latency::.cpu.inst 76488.483685                       # average overall miss latency
system.l2.demand_avg_miss_latency::.cpu.data 83820.927495                       # average overall miss latency
system.l2.demand_avg_miss_latency::total 83732.087626                       # average overall miss latency
system.l2.overall_avg_miss_latency::.cpu.inst 76488.483685                       # average overall miss latency
system.l2.overall_avg_miss_latency::.cpu.data 83820.927495                       # average overall miss latency
system.l2.overall_avg_miss_latency::total 83732.087626                       # average overall miss latency
system.l2.blocked_cycles::no_mshrs                  0                       # number of cycles access was blocked
system.l2.blocked_cycles::no_targets                0                       # number of cycles access was blocked
system.l2.blocked::no_mshrs                         0                       # number of cycles access was blocked
system.l2.blocked::no_targets                       0                       # number of cycles access was blocked
system.l2.avg_blocked_cycles::no_mshrs            nan                       # average number of cycles each access was blocked
system.l2.avg_blocked_cycles::no_targets          nan                       # average number of cycles each access was blocked
system.l2.writebacks::.writebacks               26029                       # number of writebacks
system.l2.writebacks::total                     26029                       # number of writebacks
system.l2.demand_mshr_hits::.cpu.inst               1                       # number of demand (read+write) MSHR hits
system.l2.demand_mshr_hits::.cpu.data               5                       # number of demand (read+write) MSHR hits
system.l2.demand_mshr_hits::total                   6                       # number of demand (read+write) MSHR hits
system.l2.overall_mshr_hits::.cpu.inst              1                       # number of overall MSHR hits
system.l2.overall_mshr_hits::.cpu.data              5                       # number of overall MSHR hits
system.l2.overall_mshr_hits::total                  6                       # number of overall MSHR hits
system.l2.demand_mshr_misses::.cpu.inst           520                       # number of demand (read+write) MSHR misses
system.l2.demand_mshr_misses::.cpu.data         42475                       # number of demand (read+write) MSHR misses
system.l2.demand_mshr_misses::total             42995                       # number of demand (read+write) MSHR misses
system.l2.overall_mshr_misses::.cpu.inst          520                       # number of overall MSHR misses
system.l2.overall_mshr_misses::.cpu.data        42475                       # number of overall MSHR misses
system.l2.overall_mshr_misses::total            42995                       # number of overall MSHR misses
system.l2.demand_mshr_miss_latency::.cpu.inst     34337000                       # number of demand (read+write) MSHR miss cycles
system.l2.demand_mshr_miss_latency::.cpu.data   3135637500                       # number of demand (read+write) MSHR miss cycles
system.l2.demand_mshr_miss_latency::total   3169974500                       # number of demand (read+write) MSHR miss cycles
system.l2.overall_mshr_miss_latency::.cpu.inst     34337000                       # number of overall MSHR miss cycles
system.l2.overall_mshr_miss_latency::.cpu.data   3135637500                       # number of overall MSHR miss cycles
system.l2.overall_mshr_miss_latency::total   3169974500                       # number of overall MSHR miss cycles
system.l2.demand_mshr_miss_rate::.cpu.inst     0.675325                       # mshr miss rate for demand accesses
system.l2.demand_mshr_miss_rate::.cpu.data     0.469846                       # mshr miss rate for demand accesses
system.l2.demand_mshr_miss_rate::total       0.471581                       # mshr miss rate for demand accesses
system.l2.overall_mshr_miss_rate::.cpu.inst     0.675325                       # mshr miss rate for overall accesses
system.l2.overall_mshr_miss_rate::.cpu.data     0.469846                       # mshr miss rate for overall accesses
system.l2.overall_mshr_miss_rate::total      0.471581                       # mshr miss rate for overall accesses
system.l2.demand_avg_mshr_miss_latency::.cpu.inst 66032.692308                       # average overall mshr miss latency
system.l2.demand_avg_mshr_miss_latency::.cpu.data 73823.131254                       # average overall mshr miss latency
system.l2.demand_avg_mshr_miss_latency::total 73728.910338                       # average overall mshr miss latency
system.l2.overall_avg_mshr_miss_latency::.cpu.inst 66032.692308                       # average overall mshr miss latency
system.l2.overall_avg_mshr_miss_latency::.cpu.data 73823.131254                       # average overall mshr miss latency
system.l2.overall_avg_mshr_miss_latency::total 73728.910338                       # average overall mshr miss latency
system.l2.replacements                          26614                       # number of replacements
system.l2.WritebackDirty_hits::.writebacks        72169                       # number of WritebackDirty hits
system.l2.WritebackDirty_hits::total            72169                       # number of WritebackDirty hits
system.l2.WritebackDirty_accesses::.writebacks        72169                       # number of WritebackDirty accesses(hits+misses)
system.l2.WritebackDirty_accesses::total        72169                       # number of WritebackDirty accesses(hits+misses)
system.l2.WritebackClean_hits::.writebacks          310                       # number of WritebackClean hits
system.l2.WritebackClean_hits::total              310                       # number of WritebackClean hits
system.l2.WritebackClean_accesses::.writebacks          310                       # number of WritebackClean accesses(hits+misses)
system.l2.WritebackClean_accesses::total          310                       # number of WritebackClean accesses(hits+misses)
system.l2.ReadExReq_hits::.cpu.data              8669                       # number of ReadExReq hits
system.l2.ReadExReq_hits::total                  8669                       # number of ReadExReq hits
system.l2.ReadExReq_misses::.cpu.data           38810                       # number of ReadExReq misses
system.l2.ReadExReq_misses::total               38810                       # number of ReadExReq misses
system.l2.ReadExReq_miss_latency::.cpu.data   3232001000                       # number of ReadExReq miss cycles
system.l2.ReadExReq_miss_latency::total    3232001000                       # number of ReadExReq miss cycles
system.l2.ReadExReq_accesses::.cpu.data         47479                       # number of ReadExReq accesses(hits+misses)
system.l2.ReadExReq_accesses::total             47479                       # number of ReadExReq accesses(hits+misses)
system.l2.ReadExReq_miss_rate::.cpu.data     0.817414                       # miss rate for ReadExReq accesses
system.l2.ReadExReq_miss_rate::total         0.817414                       # miss rate for ReadExReq accesses
system.l2.ReadExReq_avg_miss_latency::.cpu.data 83277.531564                       # average ReadExReq miss latency
system.l2.ReadExReq_avg_miss_latency::total 83277.531564                       # average ReadExReq miss latency
system.l2.ReadExReq_mshr_misses::.cpu.data        38810                       # number of ReadExReq MSHR misses
system.l2.ReadExReq_mshr_misses::total          38810                       # number of ReadExReq MSHR misses
system.l2.ReadExReq_mshr_miss_latency::.cpu.data   2843901000                       # number of ReadExReq MSHR miss cycles
system.l2.ReadExReq_mshr_miss_latency::total   2843901000                       # number of ReadExReq MSHR miss cycles
system.l2.ReadExReq_mshr_miss_rate::.cpu.data     0.817414                       # mshr miss rate for ReadExReq accesses
system.l2.ReadExReq_mshr_miss_rate::total     0.817414                       # mshr miss rate for ReadExReq accesses
system.l2.ReadExReq_avg_mshr_miss_latency::.cpu.data 73277.531564                       # average ReadExReq mshr miss latency
system.l2.ReadExReq_avg_mshr_miss_latency::total 73277.531564                       # average ReadExReq mshr miss latency
system.l2.ReadCleanReq_hits::.cpu.inst            249                       # number of ReadCleanReq hits
system.l2.ReadCleanReq_hits::total                249                       # number of ReadCleanReq hits
system.l2.ReadCleanReq_misses::.cpu.inst          521                       # number of ReadCleanReq misses
system.l2.ReadCleanReq_misses::total              521                       # number of ReadCleanReq misses
system.l2.ReadCleanReq_miss_latency::.cpu.inst     39850500                       # number of ReadCleanReq miss cycles
system.l2.ReadCleanReq_miss_latency::total     39850500                       # number of ReadCleanReq miss cycles
system.l2.ReadCleanReq_accesses::.cpu.inst          770                       # number of ReadCleanReq accesses(hits+misses)
system.l2.ReadCleanReq_accesses::total            770                       # number of ReadCleanReq accesses(hits+misses)
system.l2.ReadCleanReq_miss_rate::.cpu.inst     0.676623                       # miss rate for ReadCleanReq accesses
system.l2.ReadCleanReq_miss_rate::total      0.676623                       # miss rate for ReadCleanReq accesses
system.l2.ReadCleanReq_avg_miss_latency::.cpu.inst 76488.483685                       # average ReadCleanReq miss latency
system.l2.ReadCleanReq_avg_miss_latency::total 76488.483685                       # average ReadCleanReq miss latency
system.l2.ReadCleanReq_mshr_hits::.cpu.inst            1                       # number of ReadCleanReq MSHR hits
system.l2.ReadCleanReq_mshr_hits::total             1                       # number of ReadCleanReq MSHR hits
system.l2.ReadCleanReq_mshr_misses::.cpu.inst          520                       # number of ReadCleanReq MSHR misses
system.l2.ReadCleanReq_mshr_misses::total          520                       # number of ReadCleanReq MSHR misses
system.l2.ReadCleanReq_mshr_miss_latency::.cpu.inst     34337000                       # number of ReadCleanReq MSHR miss cycles
system.l2.ReadCleanReq_mshr_miss_latency::total     34337000                       # number of ReadCleanReq MSHR miss cycles
system.l2.ReadCleanReq_mshr_miss_rate::.cpu.inst     0.675325                       # mshr miss rate for ReadCleanReq accesses
system.l2.ReadCleanReq_mshr_miss_rate::total     0.675325                       # mshr miss rate for ReadCleanReq accesses
system.l2.ReadCleanReq_avg_mshr_miss_latency::.cpu.inst 66032.692308                       # average ReadCleanReq mshr miss latency
system.l2.ReadCleanReq_avg_mshr_miss_latency::total 66032.692308                       # average ReadCleanReq mshr miss latency
system.l2.ReadSharedReq_hits::.cpu.data         39253                       # number of ReadSharedReq hits
system.l2.ReadSharedReq_hits::total             39253                       # number of ReadSharedReq hits
system.l2.ReadSharedReq_misses::.cpu.data         3670                       # number of ReadSharedReq misses
system.l2.ReadSharedReq_misses::total            3670                       # number of ReadSharedReq misses
system.l2.ReadSharedReq_miss_latency::.cpu.data    328712000                       # number of ReadSharedReq miss cycles
system.l2.ReadSharedReq_miss_latency::total    328712000                       # number of ReadSharedReq miss cycles
system.l2.ReadSharedReq_accesses::.cpu.data        42923                       # number of ReadSharedReq accesses(hits+misses)
system.l2.ReadSharedReq_accesses::total         42923                       # number of ReadSharedReq accesses(hits+misses)
system.l2.ReadSharedReq_miss_rate::.cpu.data     0.085502                       # miss rate for ReadSharedReq accesses
system.l2.ReadSharedReq_miss_rate::total     0.085502                       # miss rate for ReadSharedReq accesses
system.l2.ReadSharedReq_avg_miss_latency::.cpu.data 89567.302452                       # average ReadSharedReq miss latency
system.l2.ReadSharedReq_avg_miss_latency::total 89567.302452                       # average ReadSharedReq miss latency
system.l2.ReadSharedReq_mshr_hits::.cpu.data            5                       # number of ReadSharedReq MSHR hits
system.l2.ReadSharedReq_mshr_hits::total            5                       # number of ReadSharedReq MSHR hits
system.l2.ReadSharedReq_mshr_misses::.cpu.data         3665                       # number of ReadSharedReq MSHR misses
system.l2.ReadSharedReq_mshr_misses::total         3665                       # number of ReadSharedReq MSHR misses
system.l2.ReadSharedReq_mshr_miss_latency::.cpu.data    291736500                       # number of ReadSharedReq MSHR miss cycles
system.l2.ReadSharedReq_mshr_miss_latency::total    291736500                       # number of ReadSharedReq MSHR miss cycles
system.l2.ReadSharedReq_mshr_miss_rate::.cpu.data     0.085385                       # mshr miss rate for ReadSharedReq accesses
system.l2.ReadSharedReq_mshr_miss_rate::total     0.085385                       # mshr miss rate for ReadSharedReq accesses
system.l2.ReadSharedReq_avg_mshr_miss_latency::.cpu.data 79600.682128                       # average ReadSharedReq mshr miss latency
system.l2.ReadSharedReq_avg_mshr_miss_latency::total 79600.682128                       # average ReadSharedReq mshr miss latency
system.l2.power_state.pwrStateResidencyTicks::UNDEFINED  57671597000                       # Cumulative time (in ticks) in various power states
system.l2.tags.tagsinuse                 15558.768073                       # Cycle average of tags in use
system.l2.tags.total_refs                      179285                       # Total number of references to valid blocks.
system.l2.tags.sampled_refs                     42998                       # Sample count of references to valid blocks.
system.l2.tags.avg_refs                      4.169613                       # Average number of references to valid blocks.
system.l2.tags.warmup_cycle                     77000                       # Cycle when the warmup percentage was hit.
system.l2.tags.occ_blocks::.writebacks       1.441844                       # Average occupied blocks per requestor
system.l2.tags.occ_blocks::.cpu.inst        67.645041                       # Average occupied blocks per requestor
system.l2.tags.occ_blocks::.cpu.data     15489.681187                       # Average occupied blocks per requestor
system.l2.tags.occ_percent::.writebacks      0.000088                       # Average percentage of cache occupancy
system.l2.tags.occ_percent::.cpu.inst        0.004129                       # Average percentage of cache occupancy
system.l2.tags.occ_percent::.cpu.data        0.945415                       # Average percentage of cache occupancy
system.l2.tags.occ_percent::total            0.949632                       # Average percentage of cache occupancy
system.l2.tags.occ_task_id_blocks::1024         16384                       # Occupied blocks per task id
system.l2.tags.age_task_id_blocks_1024::0            3                       # Occupied blocks per task id
system.l2.tags.age_task_id_blocks_1024::1           35                       # Occupied blocks per task id
system.l2.tags.age_task_id_blocks_1024::2          542                       # Occupied blocks per task id
system.l2.tags.age_task_id_blocks_1024::3         4351                       # Occupied blocks per task id
system.l2.tags.age_task_id_blocks_1024::4        11453                       # Occupied blocks per task id
system.l2.tags.occ_task_id_percent::1024            1                       # Percentage of cache occupancy per task id
system.l2.tags.tag_accesses                   2911654                       # Number of tag accesses
system.l2.tags.data_accesses                  2911654                       # Number of data accesses
system.l2.tags.power_state.pwrStateResidencyTicks::UNDEFINED  57671597000                       # Cumulative time (in ticks) in various power states
system.mem_ctrls.avgPriority_.writebacks::samples     26029.00                       # Average QoS priority value for accepted requests
system.mem_ctrls.avgPriority_.cpu.inst::samples       520.00                       # Average QoS priority value for accepted requests
system.mem_ctrls.avgPriority_.cpu.data::samples     42471.00                       # Average QoS priority value for accepted requests
system.mem_ctrls.priorityMinLatency      0.000000018750                       # per QoS priority minimum request to response latency (s)
system.mem_ctrls.priorityMaxLatency      0.001729194750                       # per QoS priority maximum request to response latency (s)
system.mem_ctrls.numReadWriteTurnArounds         1450                       # Number of turnarounds from READ to WRITE
system.mem_ctrls.numWriteReadTurnArounds         1450                       # Number of turnarounds from WRITE to READ
system.mem_ctrls.numStayReadState              126570                       # Number of times bus staying in READ state
system.mem_ctrls.numStayWriteState              24561                       # Number of times bus staying in WRITE state
system.mem_ctrls.readReqs                       42995                       # Number of read requests accepted
system.mem_ctrls.writeReqs                      26029                       # Number of write requests accepted
system.mem_ctrls.readBursts                     42995                       # Number of controller read bursts, including those serviced by the write queue
system.mem_ctrls.writeBursts                    26029                       # Number of controller write bursts, including those merged in the write queue
system.mem_ctrls.servicedByWrQ                      4                       # Number of controller read bursts serviced by the write queue
system.mem_ctrls.mergedWrBursts                     0                       # Number of controller write bursts merged with an existing one
system.mem_ctrls.neitherReadNorWriteReqs            0                       # Number of requests that are neither read nor write
system.mem_ctrls.avgRdQLen                       1.04                       # Average read queue length when enqueuing
system.mem_ctrls.avgWrQLen                      22.07                       # Average write queue length when enqueuing
system.mem_ctrls.numRdRetry                         0                       # Number of times read queue was full causing retry
system.mem_ctrls.numWrRetry                         0                       # Number of times write queue was full causing retry
system.mem_ctrls.readPktSize::0                     0                       # Read request sizes (log2)
system.mem_ctrls.readPktSize::1                     0                       # Read request sizes (log2)
system.mem_ctrls.readPktSize::2                     0                       # Read request sizes (log2)
system.mem_ctrls.readPktSize::3                     0                       # Read request sizes (log2)
[...]
system.mem_ctrls.dram.bw_write::.writebacks     28885207                       # Write bandwidth from this memory (bytes/s)
system.mem_ctrls.dram.bw_write::total        28885207                       # Write bandwidth from this memory (bytes/s)
system.mem_ctrls.dram.bw_total::.writebacks     28885207                       # Total bandwidth to/from this memory (bytes/s)
system.mem_ctrls.dram.bw_total::.cpu.inst       577060                       # Total bandwidth to/from this memory (bytes/s)
system.mem_ctrls.dram.bw_total::.cpu.data     47135854                       # Total bandwidth to/from this memory (bytes/s)
system.mem_ctrls.dram.bw_total::total        76598122                       # Total bandwidth to/from this memory (bytes/s)
system.mem_ctrls.dram.readBursts                42991                       # Number of DRAM read bursts
system.mem_ctrls.dram.writeBursts               26000                       # Number of DRAM write bursts
system.mem_ctrls.dram.perBankRdBursts::0         2743                       # Per bank write bursts
system.mem_ctrls.dram.perBankRdBursts::1         2661                       # Per bank write bursts
system.mem_ctrls.dram.perBankRdBursts::2         2687                       # Per bank write bursts
system.mem_ctrls.dram.perBankRdBursts::3         2776                       # Per bank write bursts
system.mem_ctrls.dram.perBankRdBursts::4         2655                       # Per bank write bursts
system.mem_ctrls.dram.perBankRdBursts::5         2543                       # Per bank write bursts
system.mem_ctrls.dram.perBankRdBursts::6         2645                       # Per bank write bursts
system.mem_ctrls.dram.perBankRdBursts::7         2708                       # Per bank write bursts
system.mem_ctrls.dram.perBankRdBursts::8         2641                       # Per bank write bursts
system.mem_ctrls.dram.perBankRdBursts::9         2697                       # Per bank write bursts
system.mem_ctrls.dram.perBankRdBursts::10         2721                       # Per bank write bursts
system.mem_ctrls.dram.perBankRdBursts::11         2701                       # Per bank write bursts
system.mem_ctrls.dram.perBankRdBursts::12         2700                       # Per bank write bursts
system.mem_ctrls.dram.perBankRdBursts::13         2702                       # Per bank write bursts
system.mem_ctrls.dram.perBankRdBursts::14         2709                       # Per bank write bursts
system.mem_ctrls.dram.perBankRdBursts::15         2702                       # Per bank write bursts
system.mem_ctrls.dram.perBankWrBursts::0         1623                       # Per bank write bursts
system.mem_ctrls.dram.perBankWrBursts::1         1579                       # Per bank write bursts
system.mem_ctrls.dram.perBankWrBursts::2         1643                       # Per bank write bursts
system.mem_ctrls.dram.perBankWrBursts::3         1627                       # Per bank write bursts
system.mem_ctrls.dram.perBankWrBursts::4         1561                       # Per bank write bursts
system.mem_ctrls.dram.perBankWrBursts::5         1587                       # Per bank write bursts
system.mem_ctrls.dram.perBankWrBursts::6         1633                       # Per bank write bursts
system.mem_ctrls.dram.perBankWrBursts::7         1638                       # Per bank write bursts
system.mem_ctrls.dram.perBankWrBursts::8         1643                       # Per bank write bursts
system.mem_ctrls.dram.perBankWrBursts::9         1644                       # Per bank write bursts
system.mem_ctrls.dram.perBankWrBursts::10         1663                       # Per bank write bursts
system.mem_ctrls.dram.perBankWrBursts::11         1651                       # Per bank write bursts
system.mem_ctrls.dram.perBankWrBursts::12         1655                       # Per bank write bursts
system.mem_ctrls.dram.perBankWrBursts::13         1585                       # Per bank write bursts
system.mem_ctrls.dram.perBankWrBursts::14         1599                       # Per bank write bursts
system.mem_ctrls.dram.perBankWrBursts::15         1669                       # Per bank write bursts
system.mem_ctrls.dram.totQLat               598319500                       # Total ticks spent queuing
system.mem_ctrls.dram.totBusLat             214955000                       # Total ticks spent in databus transfers
system.mem_ctrls.dram.totMemAccLat         1404400750                       # Total ticks spent from burst creation until serviced by the DRAM
system.mem_ctrls.dram.avgQLat                13917.32                       # Average queueing delay per DRAM burst
system.mem_ctrls.dram.avgBusLat               5000.00                       # Average bus latency per DRAM burst
system.mem_ctrls.dram.avgMemAccLat           32667.32                       # Average memory access latency per DRAM burst
system.mem_ctrls.dram.readRowHits               29494                       # Number of row buffer hits during reads
system.mem_ctrls.dram.writeRowHits              18619                       # Number of row buffer hits during writes
system.mem_ctrls.dram.readRowHitRate            68.61                       # Row buffer hit rate for reads
system.mem_ctrls.dram.writeRowHitRate           71.61                       # Row buffer hit rate for writes
system.mem_ctrls.dram.bytesPerActivate::samples        20877                       # Bytes accessed per row activation
system.mem_ctrls.dram.bytesPerActivate::mean   211.490923                       # Bytes accessed per row activation
system.mem_ctrls.dram.bytesPerActivate::gmean   148.428440                       # Bytes accessed per row activation
system.mem_ctrls.dram.bytesPerActivate::stdev   210.471358                       # Bytes accessed per row activation
system.mem_ctrls.dram.bytesPerActivate::0-127         7890     37.79%     37.79% # Bytes accessed per row activation
system.mem_ctrls.dram.bytesPerActivate::128-255         8326     39.88%     77.67% # Bytes accessed per row activation
system.mem_ctrls.dram.bytesPerActivate::256-383         1500      7.18%     84.86% # Bytes accessed per row activation
system.mem_ctrls.dram.bytesPerActivate::384-511          941      4.51%     89.37% # Bytes accessed per row activation
system.mem_ctrls.dram.bytesPerActivate::512-639          693      3.32%     92.69% # Bytes accessed per row activation
system.mem_ctrls.dram.bytesPerActivate::640-767          511      2.45%     95.13% # Bytes accessed per row activation
system.mem_ctrls.dram.bytesPerActivate::768-895          307      1.47%     96.60% # Bytes accessed per row activation
system.mem_ctrls.dram.bytesPerActivate::896-1023          481      2.30%     98.91% # Bytes accessed per row activation
system.mem_ctrls.dram.bytesPerActivate::1024-1151          228      1.09%    100.00% # Bytes accessed per row activation
system.mem_ctrls.dram.bytesPerActivate::total        20877                       # Bytes accessed per row activation
system.mem_ctrls.dram.bytesRead               2751424                       # Total number of bytes read from DRAM
system.mem_ctrls.dram.bytesWritten            1664000                       # Total number of bytes written to DRAM
system.mem_ctrls.dram.avgRdBW               47.708476                       # Average DRAM read bandwidth in MiBytes/s
system.mem_ctrls.dram.avgWrBW               28.853024                       # Average DRAM write bandwidth in MiBytes/s
system.mem_ctrls.dram.peakBW                 12800.00                       # Theoretical peak bandwidth in MiByte/s
system.mem_ctrls.dram.busUtil                    0.60                       # Data bus utilization in percentage
system.mem_ctrls.dram.busUtilRead                0.37                       # Data bus utilization in percentage for reads
system.mem_ctrls.dram.busUtilWrite               0.23                       # Data bus utilization in percentage for writes
system.mem_ctrls.dram.pageHitRate               69.74                       # Row buffer hit rate, read and write combined
system.mem_ctrls.dram.power_state.pwrStateResidencyTicks::UNDEFINED  57671597000                       # Cumulative time (in ticks) in various power states
system.mem_ctrls.dram.rank0.actEnergy        75498360                       # Energy for activate commands per rank (pJ)
system.mem_ctrls.dram.rank0.preEnergy        40124535                       # Energy for precharge commands per rank (pJ)
system.mem_ctrls.dram.rank0.readEnergy      152924520                       # Energy for read commands per rank (pJ)
system.mem_ctrls.dram.rank0.writeEnergy      67291020                       # Energy for write commands per rank (pJ)
system.mem_ctrls.dram.rank0.refreshEnergy 4552023840.000001                       # Energy for refresh commands per rank (pJ)
system.mem_ctrls.dram.rank0.actBackEnergy  14779090530                       # Energy for active background per rank (pJ)
system.mem_ctrls.dram.rank0.preBackEnergy   9700343520                       # Energy for precharge background per rank (pJ)
system.mem_ctrls.dram.rank0.actPowerDownEnergy            0                       # Energy for active power-down per rank (pJ)
system.mem_ctrls.dram.rank0.prePowerDownEnergy            0                       # Energy for precharge power-down per rank (pJ)
system.mem_ctrls.dram.rank0.selfRefreshEnergy            0                       # Energy for self refresh per rank (pJ)
system.mem_ctrls.dram.rank0.totalEnergy   29367296325                       # Total energy per rank (pJ)
system.mem_ctrls.dram.rank0.averagePower   509.215937                       # Core power per rank (mW)
system.mem_ctrls.dram.rank0.totalIdleTime            0                       # Total Idle time Per DRAM Rank
system.mem_ctrls.dram.rank0.pwrStateTime::IDLE  25078835250                       # Time in different power states
system.mem_ctrls.dram.rank0.pwrStateTime::REF   1925560000                       # Time in different power states
system.mem_ctrls.dram.rank0.pwrStateTime::SREF            0                       # Time in different power states
system.mem_ctrls.dram.rank0.pwrStateTime::PRE_PDN            0                       # Time in different power states
system.mem_ctrls.dram.rank0.pwrStateTime::ACT  30667201750                       # Time in different power states
system.mem_ctrls.dram.rank0.pwrStateTime::ACT_PDN            0                       # Time in different power states
system.mem_ctrls.dram.rank1.actEnergy        73570560                       # Energy for activate commands per rank (pJ)
system.mem_ctrls.dram.rank1.preEnergy        39103680                       # Energy for precharge commands per rank (pJ)
system.mem_ctrls.dram.rank1.readEnergy      154031220                       # Energy for read commands per rank (pJ)
system.mem_ctrls.dram.rank1.writeEnergy      68428980                       # Energy for write commands per rank (pJ)
system.mem_ctrls.dram.rank1.refreshEnergy 4552023840.000001                       # Energy for refresh commands per rank (pJ)
system.mem_ctrls.dram.rank1.actBackEnergy  14768278200                       # Energy for active background per rank (pJ)
system.mem_ctrls.dram.rank1.preBackEnergy   9709448640                       # Energy for precharge background per rank (pJ)
system.mem_ctrls.dram.rank1.actPowerDownEnergy            0                       # Energy for active power-down per rank (pJ)
system.mem_ctrls.dram.rank1.prePowerDownEnergy            0                       # Energy for precharge power-down per rank (pJ)
system.mem_ctrls.dram.rank1.selfRefreshEnergy            0                       # Energy for self refresh per rank (pJ)
system.mem_ctrls.dram.rank1.totalEnergy   29364885120                       # Total energy per rank (pJ)
system.mem_ctrls.dram.rank1.averagePower   509.174128                       # Core power per rank (mW)
system.mem_ctrls.dram.rank1.totalIdleTime            0                       # Total Idle time Per DRAM Rank
system.mem_ctrls.dram.rank1.pwrStateTime::IDLE  25102281250                       # Time in different power states
system.mem_ctrls.dram.rank1.pwrStateTime::REF   1925560000                       # Time in different power states
system.mem_ctrls.dram.rank1.pwrStateTime::SREF            0                       # Time in different power states
system.mem_ctrls.dram.rank1.pwrStateTime::PRE_PDN            0                       # Time in different power states
system.mem_ctrls.dram.rank1.pwrStateTime::ACT  30643755750                       # Time in different power states
system.mem_ctrls.dram.rank1.pwrStateTime::ACT_PDN            0                       # Time in different power states
system.mem_ctrls.power_state.pwrStateResidencyTicks::UNDEFINED  57671597000                       # Cumulative time (in ticks) in various power states
system.membus.trans_dist::ReadResp               4185                       # Transaction distribution
system.membus.trans_dist::WritebackDirty        26029                       # Transaction distribution
system.membus.trans_dist::CleanEvict              131                       # Transaction distribution
system.membus.trans_dist::ReadExReq             38810                       # Transaction distribution
system.membus.trans_dist::ReadExResp            38810                       # Transaction distribution
system.membus.trans_dist::ReadSharedReq          4185                       # Transaction distribution
system.membus.pkt_count_system.l2.mem_side_port::system.mem_ctrls.port       112150                       # Packet count per connected requestor and responder (bytes)
system.membus.pkt_count::total                 112150                       # Packet count per connected requestor and responder (bytes)
system.membus.pkt_size_system.l2.mem_side_port::system.mem_ctrls.port      4417536                       # Cumulative packet size per connected requestor and responder (bytes)
system.membus.pkt_size::total                 4417536                       # Cumulative packet size per connected requestor and responder (bytes)
system.membus.snoops                                0                       # Total snoops (count)
system.membus.snoopTraffic                          0                       # Total snoop traffic (bytes)
system.membus.snoop_fanout::samples             42995                       # Request fanout histogram
system.membus.snoop_fanout::mean                    0                       # Request fanout histogram
system.membus.snoop_fanout::stdev                   0                       # Request fanout histogram
system.membus.snoop_fanout::underflows              0      0.00%      0.00% # Request fanout histogram
system.membus.snoop_fanout::0                   42995    100.00%    100.00% # Request fanout histogram
system.membus.snoop_fanout::1                       0      0.00%    100.00% # Request fanout histogram
system.membus.snoop_fanout::overflows               0      0.00%    100.00% # Request fanout histogram
system.membus.snoop_fanout::min_value               0                       # Request fanout histogram
system.membus.snoop_fanout::max_value               0                       # Request fanout histogram
system.membus.snoop_fanout::total               42995                       # Request fanout histogram
system.membus.power_state.pwrStateResidencyTicks::UNDEFINED  57671597000                       # Cumulative time (in ticks) in various power states
system.membus.reqLayer0.occupancy           183577000                       # Layer occupancy (ticks)
system.membus.reqLayer0.utilization               0.3                       # Layer utilization (%)
system.membus.respLayer1.occupancy          228953000                       # Layer occupancy (ticks)
system.membus.respLayer1.utilization              0.4                       # Layer utilization (%)
system.tol2bus.trans_dist::ReadResp             43693                       # Transaction distribution
system.tol2bus.trans_dist::WritebackDirty        98198                       # Transaction distribution
system.tol2bus.trans_dist::WritebackClean          314                       # Transaction distribution
system.tol2bus.trans_dist::CleanEvict           18306                       # Transaction distribution
system.tol2bus.trans_dist::ReadExReq            47479                       # Transaction distribution
system.tol2bus.trans_dist::ReadExResp           47479                       # Transaction distribution
system.tol2bus.trans_dist::ReadCleanReq           770                       # Transaction distribution
system.tol2bus.trans_dist::ReadSharedReq        42923                       # Transaction distribution
system.tol2bus.pkt_count_system.cpu.icache.mem_side_port::system.l2.cpu_side_port         1854                       # Packet count per connected requestor and responder (bytes)
system.tol2bus.pkt_count_system.cpu.dcache.mem_side_port::system.l2.cpu_side_port       270694                       # Packet count per connected requestor and responder (bytes)
system.tol2bus.pkt_count::total                272548                       # Packet count per connected requestor and responder (bytes)
system.tol2bus.pkt_size_system.cpu.icache.mem_side_port::system.l2.cpu_side_port        69376                       # Cumulative packet size per connected requestor and responder (bytes)
system.tol2bus.pkt_size_system.cpu.dcache.mem_side_port::system.l2.cpu_side_port     10404544                       # Cumulative packet size per connected requestor and responder (bytes)
system.tol2bus.pkt_size::total               10473920                       # Cumulative packet size per connected requestor and responder (bytes)
system.tol2bus.snoops                           26614                       # Total snoops (count)
system.tol2bus.snoopTraffic                   1665856                       # Total snoop traffic (bytes)
system.tol2bus.snoop_fanout::samples           117786                       # Request fanout histogram
system.tol2bus.snoop_fanout::mean            0.021590                       # Request fanout histogram
system.tol2bus.snoop_fanout::stdev           0.145341                       # Request fanout histogram
system.tol2bus.snoop_fanout::underflows             0      0.00%      0.00% # Request fanout histogram
system.tol2bus.snoop_fanout::0                 115243     97.84%     97.84% # Request fanout histogram
system.tol2bus.snoop_fanout::1                   2543      2.16%    100.00% # Request fanout histogram
system.tol2bus.snoop_fanout::2                      0      0.00%    100.00% # Request fanout histogram
system.tol2bus.snoop_fanout::overflows              0      0.00%    100.00% # Request fanout histogram
system.tol2bus.snoop_fanout::min_value              0                       # Request fanout histogram
system.tol2bus.snoop_fanout::max_value              1                       # Request fanout histogram
system.tol2bus.snoop_fanout::total             117786                       # Request fanout histogram
system.tol2bus.power_state.pwrStateResidencyTicks::UNDEFINED  57671597000                       # Cumulative time (in ticks) in various power states
system.tol2bus.reqLayer0.occupancy          163171000                       # Layer occupancy (ticks)
system.tol2bus.reqLayer0.utilization              0.3                       # Layer utilization (%)
system.tol2bus.respLayer0.occupancy           1155499                       # Layer occupancy (ticks)
system.tol2bus.respLayer0.utilization             0.0                       # Layer utilization (%)
system.tol2bus.respLayer1.occupancy         135605495                       # Layer occupancy (ticks)
system.tol2bus.respLayer1.utilization             0.2                       # Layer utilization (%)
system.voltage_domain.voltage                       1                       # Voltage in Volts

---------- End Simulation Statistics   ----------
