
---------- Begin Simulation Statistics ----------
final_tick                                80325660500                       # Number of ticks from beginning of simulation (restored from checkpoints and never reset)
host_inst_rate                                 196984                       # Simulator instruction rate (inst/s)
host_mem_usage                                 672008                       # Number of bytes of host memory used
host_op_rate                                   197371                       # Simulator op (including micro ops) rate (op/s)
host_seconds                                   507.66                       # Real time elapsed on the host
host_tick_rate                              158228590                       # Simulator tick rate (ticks/s)
sim_freq                                 1000000000000                       # Frequency of simulated ticks
sim_insts                                   100000001                       # Number of instructions simulated
sim_ops                                     100196356                       # Number of ops (including micro ops) simulated
sim_seconds                                  0.080326                       # Number of seconds simulated
sim_ticks                                 80325660500                       # Number of ticks simulated
system.cpu.committedInsts                   100000001                       # Number of instructions committed
system.cpu.committedOps                     100196356                       # Number of ops (including micro ops) committed
system.cpu.cpi                               1.606513                       # CPI: cycles per instruction
system.cpu.discardedOps                        189334                       # Number of ops (including micro ops) which were discarded before commit
system.cpu.idleCycles                        28213742                       # Total number of cycles that the object has spent stopped
system.cpu.ipc                               0.622466                       # IPC: instructions per cycle
system.cpu.numCycles                        160651321                       # number of cpu cycles simulated
system.cpu.numFetchSuspends                         0                       # Number of times Execute suspended instruction fetching
system.cpu.numWorkItemsCompleted                    0                       # number of work items this cpu completed
system.cpu.numWorkItemsStarted                      0                       # number of work items this cpu started
system.cpu.op_class_0::No_OpClass                   0      0.00%      0.00% # Class of committed instruction
system.cpu.op_class_0::IntAlu                46526863     46.44%     46.44% # Class of committed instruction
system.cpu.op_class_0::IntMult                  20723      0.02%     46.46% # Class of committed instruction
system.cpu.op_class_0::IntDiv                       0      0.00%     46.46% # Class of committed instruction
system.cpu.op_class_0::FloatAdd                     0      0.00%     46.46% # Class of committed instruction
system.cpu.op_class_0::FloatCmp                     0      0.00%     46.46% # Class of committed instruction
system.cpu.op_class_0::FloatCvt                     0      0.00%     46.46% # Class of committed instruction
system.cpu.op_class_0::FloatMult                    0      0.00%     46.46% # Class of committed instruction
system.cpu.op_class_0::FloatMultAcc                 0      0.00%     46.46% # Class of committed instruction
system.cpu.op_class_0::FloatDiv                     0      0.00%     46.46% # Class of committed instruction
system.cpu.op_class_0::FloatMisc                    0      0.00%     46.46% # Class of committed instruction
system.cpu.op_class_0::FloatSqrt                    0      0.00%     46.46% # Class of committed instruction
system.cpu.op_class_0::SimdAdd                      0      0.00%     46.46% # Class of committed instruction
system.cpu.op_class_0::SimdAddAcc                   0      0.00%     46.46% # Class of committed instruction
system.cpu.op_class_0::SimdAlu                      0      0.00%     46.46% # Class of committed instruction
system.cpu.op_class_0::SimdCmp                      0      0.00%     46.46% # Class of committed instruction
system.cpu.op_class_0::SimdCvt                      0      0.00%     46.46% # Class of committed instruction
system.cpu.op_class_0::SimdMisc                     0      0.00%     46.46% # Class of committed instruction
system.cpu.op_class_0::SimdMult                     0      0.00%     46.46% # Class of committed instruction
system.cpu.op_class_0::SimdMultAcc                  0      0.00%     46.46% # Class of committed instruction
system.cpu.op_class_0::SimdShift                    0      0.00%     46.46% # Class of committed instruction
system.cpu.op_class_0::SimdShiftAcc                 0      0.00%     46.46% # Class of committed instruction
system.cpu.op_class_0::SimdDiv                      0      0.00%     46.46% # Class of committed instruction
system.cpu.op_class_0::SimdSqrt                     0      0.00%     46.46% # Class of committed instruction
system.cpu.op_class_0::SimdFloatAdd                 0      0.00%     46.46% # Class of committed instruction
system.cpu.op_class_0::SimdFloatAlu                 0      0.00%     46.46% # Class of committed instruction
system.cpu.op_class_0::SimdFloatCmp                 0      0.00%     46.46% # Class of committed instruction
system.cpu.op_class_0::SimdFloatCvt                 0      0.00%     46.46% # Class of committed instruction
system.cpu.op_class_0::SimdFloatDiv                 0      0.00%     46.46% # Class of committed instruction
system.cpu.op_class_0::SimdFloatMisc               18      0.00%     46.46% # Class of committed instruction
system.cpu.op_class_0::SimdFloatMult                0      0.00%     46.46% # Class of committed instruction
system.cpu.op_class_0::SimdFloatMultAcc             0      0.00%     46.46% # Class of committed instruction
system.cpu.op_class_0::SimdFloatSqrt                0      0.00%     46.46% # Class of committed instruction
system.cpu.op_class_0::SimdReduceAdd                0      0.00%     46.46% # Class of committed instruction
system.cpu.op_class_0::SimdReduceAlu                0      0.00%     46.46% # Class of committed instruction
system.cpu.op_class_0::SimdReduceCmp                0      0.00%     46.46% # Class of committed instruction
system.cpu.op_class_0::SimdFloatReduceAdd            0      0.00%     46.46% # Class of committed instruction
system.cpu.op_class_0::SimdFloatReduceCmp            0      0.00%     46.46% # Class of committed instruction
system.cpu.op_class_0::SimdAes                      0      0.00%     46.46% # Class of committed instruction
system.cpu.op_class_0::SimdAesMix                   0      0.00%     46.46% # Class of committed instruction
system.cpu.op_class_0::SimdSha1Hash                 0      0.00%     46.46% # Class of committed instruction
system.cpu.op_class_0::SimdSha1Hash2                0      0.00%     46.46% # Class of committed instruction
system.cpu.op_class_0::SimdSha256Hash               0      0.00%     46.46% # Class of committed instruction
system.cpu.op_class_0::SimdSha256Hash2              0      0.00%     46.46% # Class of committed instruction
system.cpu.op_class_0::SimdShaSigma2                0      0.00%     46.46% # Class of committed instruction
system.cpu.op_class_0::SimdShaSigma3                0      0.00%     46.46% # Class of committed instruction
system.cpu.op_class_0::SimdPredAlu                  0      0.00%     46.46% # Class of committed instruction
system.cpu.op_class_0::MemRead               42690537     42.61%     89.06% # Class of committed instruction
system.cpu.op_class_0::MemWrite              10958215     10.94%    100.00% # Class of committed instruction
system.cpu.op_class_0::FloatMemRead                 0      0.00%    100.00% # Class of committed instruction
system.cpu.op_class_0::FloatMemWrite                0      0.00%    100.00% # Class of committed instruction
system.cpu.op_class_0::IprAccess                    0      0.00%    100.00% # Class of committed instruction
system.cpu.op_class_0::InstPrefetch                 0      0.00%    100.00% # Class of committed instruction
system.cpu.op_class_0::total                100196356                       # Class of committed instruction
system.cpu.tickCycles                       132437579                       # Number of cycles that the object actually ticked
system.cpu.workload.numSyscalls                    85                       # Number of system calls
system.membus.snoop_filter.hit_multi_requests            0                       # Number of requests hitting in the snoop filter with multiple (>1) holders of the requested data.
system.membus.snoop_filter.hit_multi_snoops            0                       # Number of snoops hitting in the snoop filter with multiple (>1) holders of the requested data.
system.membus.snoop_filter.hit_single_requests       113951                       # Number of requests hitting in the snoop filter with a single holder of the requested data.
system.membus.snoop_filter.hit_single_snoops            0                       # Number of snoops hitting in the snoop filter with a single holder of the requested data.
system.membus.snoop_filter.tot_requests        293888                       # Total number of requests made to the snoop filter.
system.membus.snoop_filter.tot_snoops               0                       # Total number of snoops made to the snoop filter.
system.tol2bus.snoop_filter.hit_multi_requests           61                       # Number of requests hitting in the snoop filter with multiple (>1) holders of the requested data.
system.tol2bus.snoop_filter.hit_multi_snoops            0                       # Number of snoops hitting in the snoop filter with multiple (>1) holders of the requested data.
system.tol2bus.snoop_filter.hit_single_requests       460226                       # Number of requests hitting in the snoop filter with a single holder of the requested data.
system.tol2bus.snoop_filter.hit_single_snoops          505                       # Number of snoops hitting in the snoop filter with a single holder of the requested data.
system.tol2bus.snoop_filter.tot_requests       923092                       # Total number of requests made to the snoop filter.
system.tol2bus.snoop_filter.tot_snoops            505                       # Total number of snoops made to the snoop filter.
system.clk_domain.clock                          1000                       # Clock period in ticks
system.cpu.branchPred.lookups                 4485917                       # Number of BP lookups
system.cpu.branchPred.condPredicted           3735627                       # Number of conditional branches predicted
system.cpu.branchPred.condIncorrect             81006                       # Number of conditional branches incorrect
system.cpu.branchPred.BTBLookups              2103780                       # Number of BTB lookups
system.cpu.branchPred.BTBHits                 2101782                       # Number of BTB hits
system.cpu.branchPred.BTBHitPct             99.905028                       # BTB Hit Percentage
system.cpu.branchPred.RASUsed                   65378                       # Number of times the RAS was used to get a target.
system.cpu.branchPred.RASIncorrect                 14                       # Number of incorrect RAS predictions.
system.cpu.branchPred.indirectLookups             693                       # Number of indirect predictor lookups.
system.cpu.branchPred.indirectHits                288                       # Number of indirect target hits.
system.cpu.branchPred.indirectMisses              405                       # Number of indirect misses.
system.cpu.branchPred.indirectMispredicted          171                       # Number of mispredicted indirect branches.
system.cpu.dcache.demand_hits::.cpu.data     51551426                       # number of demand (read+write) hits
system.cpu.dcache.demand_hits::total         51551426                       # number of demand (read+write) hits
system.cpu.dcache.overall_hits::.cpu.data     51551936                       # number of overall hits
system.cpu.dcache.overall_hits::total        51551936                       # number of overall hits
system.cpu.dcache.demand_misses::.cpu.data       516635                       # number of demand (read+write) misses
system.cpu.dcache.demand_misses::total         516635                       # number of demand (read+write) misses
system.cpu.dcache.overall_misses::.cpu.data       524544                       # number of overall misses
system.cpu.dcache.overall_misses::total        524544                       # number of overall misses
system.cpu.dcache.demand_miss_latency::.cpu.data  19931664000                       # number of demand (read+write) miss cycles
system.cpu.dcache.demand_miss_latency::total  19931664000                       # number of demand (read+write) miss cycles
system.cpu.dcache.overall_miss_latency::.cpu.data  19931664000                       # number of overall miss cycles
system.cpu.dcache.overall_miss_latency::total  19931664000                       # number of overall miss cycles
system.cpu.dcache.demand_accesses::.cpu.data     52068061                       # number of demand (read+write) accesses
system.cpu.dcache.demand_accesses::total     52068061                       # number of demand (read+write) accesses
system.cpu.dcache.overall_accesses::.cpu.data     52076480                       # number of overall (read+write) accesses
system.cpu.dcache.overall_accesses::total     52076480                       # number of overall (read+write) accesses
system.cpu.dcache.demand_miss_rate::.cpu.data     0.009922                       # miss rate for demand accesses
system.cpu.dcache.demand_miss_rate::total     0.009922                       # miss rate for demand accesses
system.cpu.dcache.overall_miss_rate::.cpu.data     0.010073                       # miss rate for overall accesses
system.cpu.dcache.overall_miss_rate::total     0.010073                       # miss rate for overall accesses
system.cpu.dcache.demand_avg_miss_latency::.cpu.data 38579.778761                       # average overall miss latency
system.cpu.dcache.demand_avg_miss_latency::total 38579.778761                       # average overall miss latency
system.cpu.dcache.overall_avg_miss_latency::.cpu.data 37998.078331                       # average overall miss latency
system.cpu.dcache.overall_avg_miss_latency::total 37998.078331                       # average overall miss latency
system.cpu.dcache.blocked_cycles::no_mshrs       203257                       # number of cycles access was blocked
system.cpu.dcache.blocked_cycles::no_targets            0                       # number of cycles access was blocked
system.cpu.dcache.blocked::no_mshrs              3259                       # number of cycles access was blocked
system.cpu.dcache.blocked::no_targets               0                       # number of cycles access was blocked
system.cpu.dcache.avg_blocked_cycles::no_mshrs    62.367904                       # average number of cycles each access was blocked
system.cpu.dcache.avg_blocked_cycles::no_targets          nan                       # average number of cycles each access was blocked
system.cpu.dcache.writebacks::.writebacks       405893                       # number of writebacks
system.cpu.dcache.writebacks::total            405893                       # number of writebacks
system.cpu.dcache.demand_mshr_hits::.cpu.data        62376                       # number of demand (read+write) MSHR hits
system.cpu.dcache.demand_mshr_hits::total        62376                       # number of demand (read+write) MSHR hits
system.cpu.dcache.overall_mshr_hits::.cpu.data        62376                       # number of overall MSHR hits
system.cpu.dcache.overall_mshr_hits::total        62376                       # number of overall MSHR hits
system.cpu.dcache.demand_mshr_misses::.cpu.data       454259                       # number of demand (read+write) MSHR misses
system.cpu.dcache.demand_mshr_misses::total       454259                       # number of demand (read+write) MSHR misses
system.cpu.dcache.overall_mshr_misses::.cpu.data       462164                       # number of overall MSHR misses
system.cpu.dcache.overall_mshr_misses::total       462164                       # number of overall MSHR misses
system.cpu.dcache.demand_mshr_miss_latency::.cpu.data  17838330000                       # number of demand (read+write) MSHR miss cycles
system.cpu.dcache.demand_mshr_miss_latency::total  17838330000                       # number of demand (read+write) MSHR miss cycles
system.cpu.dcache.overall_mshr_miss_latency::.cpu.data  18511665499                       # number of overall MSHR miss cycles
system.cpu.dcache.overall_mshr_miss_latency::total  18511665499                       # number of overall MSHR miss cycles
system.cpu.dcache.demand_mshr_miss_rate::.cpu.data     0.008724                       # mshr miss rate for demand accesses
system.cpu.dcache.demand_mshr_miss_rate::total     0.008724                       # mshr miss rate for demand accesses
system.cpu.dcache.overall_mshr_miss_rate::.cpu.data     0.008875                       # mshr miss rate for overall accesses
system.cpu.dcache.overall_mshr_miss_rate::total     0.008875                       # mshr miss rate for overall accesses
system.cpu.dcache.demand_avg_mshr_miss_latency::.cpu.data 39269.073370                       # average overall mshr miss latency
system.cpu.dcache.demand_avg_mshr_miss_latency::total 39269.073370                       # average overall mshr miss latency
system.cpu.dcache.overall_avg_mshr_miss_latency::.cpu.data 40054.321624                       # average overall mshr miss latency
system.cpu.dcache.overall_avg_mshr_miss_latency::total 40054.321624                       # average overall mshr miss latency
system.cpu.dcache.replacements                 460116                       # number of replacements
system.cpu.dcache.ReadReq_hits::.cpu.data     40888398                       # number of ReadReq hits
system.cpu.dcache.ReadReq_hits::total        40888398                       # number of ReadReq hits
system.cpu.dcache.ReadReq_misses::.cpu.data       230581                       # number of ReadReq misses
system.cpu.dcache.ReadReq_misses::total        230581                       # number of ReadReq misses
system.cpu.dcache.ReadReq_miss_latency::.cpu.data   5879381000                       # number of ReadReq miss cycles
system.cpu.dcache.ReadReq_miss_latency::total   5879381000                       # number of ReadReq miss cycles
system.cpu.dcache.ReadReq_accesses::.cpu.data     41118979                       # number of ReadReq accesses(hits+misses)
system.cpu.dcache.ReadReq_accesses::total     41118979                       # number of ReadReq accesses(hits+misses)
system.cpu.dcache.ReadReq_miss_rate::.cpu.data     0.005608                       # miss rate for ReadReq accesses
system.cpu.dcache.ReadReq_miss_rate::total     0.005608                       # miss rate for ReadReq accesses
system.cpu.dcache.ReadReq_avg_miss_latency::.cpu.data 25498.115630                       # average ReadReq miss latency
system.cpu.dcache.ReadReq_avg_miss_latency::total 25498.115630                       # average ReadReq miss latency
system.cpu.dcache.ReadReq_mshr_hits::.cpu.data          648                       # number of ReadReq MSHR hits
system.cpu.dcache.ReadReq_mshr_hits::total          648                       # number of ReadReq MSHR hits
system.cpu.dcache.ReadReq_mshr_misses::.cpu.data       229933                       # number of ReadReq MSHR misses
system.cpu.dcache.ReadReq_mshr_misses::total       229933                       # number of ReadReq MSHR misses
system.cpu.dcache.ReadReq_mshr_miss_latency::.cpu.data   5624787000                       # number of ReadReq MSHR miss cycles
system.cpu.dcache.ReadReq_mshr_miss_latency::total   5624787000                       # number of ReadReq MSHR miss cycles
system.cpu.dcache.ReadReq_mshr_miss_rate::.cpu.data     0.005592                       # mshr miss rate for ReadReq accesses
system.cpu.dcache.ReadReq_mshr_miss_rate::total     0.005592                       # mshr miss rate for ReadReq accesses
system.cpu.dcache.ReadReq_avg_mshr_miss_latency::.cpu.data 24462.721749                       # average ReadReq mshr miss latency
system.cpu.dcache.ReadReq_avg_mshr_miss_latency::total 24462.721749                       # average ReadReq mshr miss latency
system.cpu.dcache.WriteReq_hits::.cpu.data     10663028                       # number of WriteReq hits
system.cpu.dcache.WriteReq_hits::total       10663028                       # number of WriteReq hits
system.cpu.dcache.WriteReq_misses::.cpu.data       286054                       # number of WriteReq misses
system.cpu.dcache.WriteReq_misses::total       286054                       # number of WriteReq misses
system.cpu.dcache.WriteReq_miss_latency::.cpu.data  14052283000                       # number of WriteReq miss cycles
system.cpu.dcache.WriteReq_miss_latency::total  14052283000                       # number of WriteReq miss cycles
system.cpu.dcache.WriteReq_accesses::.cpu.data     10949082                       # number of WriteReq accesses(hits+misses)
system.cpu.dcache.WriteReq_accesses::total     10949082                       # number of WriteReq accesses(hits+misses)
system.cpu.dcache.WriteReq_miss_rate::.cpu.data     0.026126                       # miss rate for WriteReq accesses
system.cpu.dcache.WriteReq_miss_rate::total     0.026126                       # miss rate for WriteReq accesses
system.cpu.dcache.WriteReq_avg_miss_latency::.cpu.data 49124.581373                       # average WriteReq miss latency
system.cpu.dcache.WriteReq_avg_miss_latency::total 49124.581373                       # average WriteReq miss latency
system.cpu.dcache.WriteReq_mshr_hits::.cpu.data        61728                       # number of WriteReq MSHR hits
system.cpu.dcache.WriteReq_mshr_hits::total        61728                       # number of WriteReq MSHR hits
system.cpu.dcache.WriteReq_mshr_misses::.cpu.data       224326                       # number of WriteReq MSHR misses
system.cpu.dcache.WriteReq_mshr_misses::total       224326                       # number of WriteReq MSHR misses
system.cpu.dcache.WriteReq_mshr_miss_latency::.cpu.data  12213543000                       # number of WriteReq MSHR miss cycles
system.cpu.dcache.WriteReq_mshr_miss_latency::total  12213543000                       # number of WriteReq MSHR miss cycles
system.cpu.dcache.WriteReq_mshr_miss_rate::.cpu.data     0.020488                       # mshr miss rate for WriteReq accesses
system.cpu.dcache.WriteReq_mshr_miss_rate::total     0.020488                       # mshr miss rate for WriteReq accesses
system.cpu.dcache.WriteReq_avg_mshr_miss_latency::.cpu.data 54445.507877                       # average WriteReq mshr miss latency
system.cpu.dcache.WriteReq_avg_mshr_miss_latency::total 54445.507877                       # average WriteReq mshr miss latency
system.cpu.dcache.SoftPFReq_hits::.cpu.data          510                       # number of SoftPFReq hits
system.cpu.dcache.SoftPFReq_hits::total           510                       # number of SoftPFReq hits
system.cpu.dcache.SoftPFReq_misses::.cpu.data         7909                       # number of SoftPFReq misses
system.cpu.dcache.SoftPFReq_misses::total         7909                       # number of SoftPFReq misses
system.cpu.dcache.SoftPFReq_accesses::.cpu.data         8419                       # number of SoftPFReq accesses(hits+misses)
system.cpu.dcache.SoftPFReq_accesses::total         8419                       # number of SoftPFReq accesses(hits+misses)
system.cpu.dcache.SoftPFReq_miss_rate::.cpu.data     0.939423                       # miss rate for SoftPFReq accesses
system.cpu.dcache.SoftPFReq_miss_rate::total     0.939423                       # miss rate for SoftPFReq accesses
system.cpu.dcache.SoftPFReq_mshr_misses::.cpu.data         7905                       # number of SoftPFReq MSHR misses
system.cpu.dcache.SoftPFReq_mshr_misses::total         7905                       # number of SoftPFReq MSHR misses
system.cpu.dcache.SoftPFReq_mshr_miss_latency::.cpu.data    673335499                       # number of SoftPFReq MSHR miss cycles
system.cpu.dcache.SoftPFReq_mshr_miss_latency::total    673335499                       # number of SoftPFReq MSHR miss cycles
system.cpu.dcache.SoftPFReq_mshr_miss_rate::.cpu.data     0.938948                       # mshr miss rate for SoftPFReq accesses
system.cpu.dcache.SoftPFReq_mshr_miss_rate::total     0.938948                       # mshr miss rate for SoftPFReq accesses
system.cpu.dcache.SoftPFReq_avg_mshr_miss_latency::.cpu.data 85178.431246                       # average SoftPFReq mshr miss latency
system.cpu.dcache.SoftPFReq_avg_mshr_miss_latency::total 85178.431246                       # average SoftPFReq mshr miss latency
system.cpu.dcache.LoadLockedReq_hits::.cpu.data           38                       # number of LoadLockedReq hits
system.cpu.dcache.LoadLockedReq_hits::total           38                       # number of LoadLockedReq hits
system.cpu.dcache.LoadLockedReq_accesses::.cpu.data           38                       # number of LoadLockedReq accesses(hits+misses)
system.cpu.dcache.LoadLockedReq_accesses::total           38                       # number of LoadLockedReq accesses(hits+misses)
system.cpu.dcache.StoreCondReq_hits::.cpu.data           38                       # number of StoreCondReq hits
system.cpu.dcache.StoreCondReq_hits::total           38                       # number of StoreCondReq hits
system.cpu.dcache.StoreCondReq_accesses::.cpu.data           38                       # number of StoreCondReq accesses(hits+misses)
system.cpu.dcache.StoreCondReq_accesses::total           38                       # number of StoreCondReq accesses(hits+misses)
system.cpu.dcache.power_state.pwrStateResidencyTicks::UNDEFINED  80325660500                       # Cumulative time (in ticks) in various power states
system.cpu.dcache.tags.tagsinuse          2011.264306                       # Cycle average of tags in use
system.cpu.dcache.tags.total_refs            52014176                       # Total number of references to valid blocks.
system.cpu.dcache.tags.sampled_refs            462164                       # Sample count of references to valid blocks.
system.cpu.dcache.tags.avg_refs            112.544846                       # Average number of references to valid blocks.
system.cpu.dcache.tags.warmup_cycle            176500                       # Cycle when the warmup percentage was hit.
system.cpu.dcache.tags.occ_blocks::.cpu.data  2011.264306                       # Average occupied blocks per requestor
system.cpu.dcache.tags.occ_percent::.cpu.data     0.982063                       # Average percentage of cache occupancy
system.cpu.dcache.tags.occ_percent::total     0.982063                       # Average percentage of cache occupancy
system.cpu.dcache.tags.occ_task_id_blocks::1024         2048                       # Occupied blocks per task id
system.cpu.dcache.tags.age_task_id_blocks_1024::0          148                       # Occupied blocks per task id
system.cpu.dcache.tags.age_task_id_blocks_1024::1          717                       # Occupied blocks per task id
system.cpu.dcache.tags.age_task_id_blocks_1024::2         1159                       # Occupied blocks per task id
system.cpu.dcache.tags.age_task_id_blocks_1024::3           22                       # Occupied blocks per task id
system.cpu.dcache.tags.age_task_id_blocks_1024::4            2                       # Occupied blocks per task id
system.cpu.dcache.tags.occ_task_id_percent::1024            1                       # Percentage of cache occupancy per task id
system.cpu.dcache.tags.tag_accesses        1666911956                       # Number of tag accesses
system.cpu.dcache.tags.data_accesses       1666911956                       # Number of data accesses
system.cpu.dcache.tags.power_state.pwrStateResidencyTicks::UNDEFINED  80325660500                       # Cumulative time (in ticks) in various power states
system.cpu.dtb.instHits                             0                       # ITB inst hits
system.cpu.dtb.instMisses                           0                       # ITB inst misses
system.cpu.dtb.readHits                             0                       # DTB read hits
system.cpu.dtb.readMisses                           0                       # DTB read misses
system.cpu.dtb.writeHits                            0                       # DTB write hits
system.cpu.dtb.writeMisses                          0                       # DTB write misses
system.cpu.dtb.inserts                              0                       # Number of times an entry is inserted into the TLB
system.cpu.dtb.flushTlb                             0                       # Number of times complete TLB was flushed
system.cpu.dtb.flushTlbMva                          0                       # Number of times TLB was flushed by MVA
system.cpu.dtb.flushTlbMvaAsid                      0                       # Number of times TLB was flushed by MVA & ASID
system.cpu.dtb.flushTlbAsid                         0                       # Number of times TLB was flushed by ASID
system.cpu.dtb.flushedEntries                       0                       # Number of entries that have been flushed from TLB
system.cpu.dtb.alignFaults                          0                       # Number of TLB faults due to alignment restrictions
system.cpu.dtb.prefetchFaults                       0                       # Number of TLB faults due to prefetch
system.cpu.dtb.domainFaults                         0                       # Number of TLB faults due to domain restrictions
system.cpu.dtb.permsFaults                          0                       # Number of TLB faults due to permissions restrictions
system.cpu.dtb.readAccesses                         0                       # DTB read accesses
system.cpu.dtb.writeAccesses                        0                       # DTB write accesses
system.cpu.dtb.instAccesses                         0                       # ITB inst accesses
system.cpu.dtb.hits                                 0                       # Total TLB (inst and data) hits
system.cpu.dtb.misses                               0                       # Total TLB (inst and data) misses
system.cpu.dtb.accesses                             0                       # Total TLB (inst and data) accesses
system.cpu.dtb.stage2_mmu.stage2_tlb.instHits            0                       # ITB inst hits
system.cpu.dtb.stage2_mmu.stage2_tlb.instMisses            0                       # ITB inst misses
system.cpu.dtb.stage2_mmu.stage2_tlb.readHits            0                       # DTB read hits
system.cpu.dtb.stage2_mmu.stage2_tlb.readMisses            0                       # DTB read misses
system.cpu.dtb.stage2_mmu.stage2_tlb.writeHits            0                       # DTB write hits
system.cpu.dtb.stage2_mmu.stage2_tlb.writeMisses            0                       # DTB write misses
system.cpu.dtb.stage2_mmu.stage2_tlb.inserts            0                       # Number of times an entry is inserted into the TLB
system.cpu.dtb.stage2_mmu.stage2_tlb.flushTlb            0                       # Number of times complete TLB was flushed
system.cpu.dtb.stage2_mmu.stage2_tlb.flushTlbMva            0                       # Number of times TLB was flushed by MVA
system.cpu.dtb.stage2_mmu.stage2_tlb.flushTlbMvaAsid            0                       # Number of times TLB was flushed by MVA & ASID
system.cpu.dtb.stage2_mmu.stage2_tlb.flushTlbAsid            0                       # Number of times TLB was flushed by ASID
system.cpu.dtb.stage2_mmu.stage2_tlb.flushedEntries            0                       # Number of entries that have been flushed from TLB
system.cpu.dtb.stage2_mmu.stage2_tlb.alignFaults            0                       # Number of TLB faults due to alignment restrictions
system.cpu.dtb.stage2_mmu.stage2_tlb.prefetchFaults            0                       # Number of TLB faults due to prefetch
system.cpu.dtb.stage2_mmu.stage2_tlb.domainFaults            0                       # Number of TLB faults due to domain restrictions
system.cpu.dtb.stage2_mmu.stage2_tlb.permsFaults            0                       # Number of TLB faults due to permissions restrictions
system.cpu.dtb.stage2_mmu.stage2_tlb.readAccesses            0                       # DTB read accesses
system.cpu.dtb.stage2_mmu.stage2_tlb.writeAccesses            0                       # DTB write accesses
system.cpu.dtb.stage2_mmu.stage2_tlb.instAccesses            0                       # ITB inst accesses
system.cpu.dtb.stage2_mmu.stage2_tlb.hits            0                       # Total TLB (inst and data) hits
system.cpu.dtb.stage2_mmu.stage2_tlb.misses            0                       # Total TLB (inst and data) misses
system.cpu.dtb.stage2_mmu.stage2_tlb.accesses            0                       # Total TLB (inst and data) accesses
system.cpu.dtb.stage2_mmu.stage2_tlb.walker.walks            0                       # Table walker walks requested
system.cpu.dtb.stage2_mmu.stage2_tlb.walker.requestOrigin_Requested::Data            0                       # Table walker requests started/completed, data/inst
system.cpu.dtb.stage2_mmu.stage2_tlb.walker.requestOrigin_Requested::Inst            0                       # Table walker requests started/completed, data/inst
system.cpu.dtb.stage2_mmu.stage2_tlb.walker.requestOrigin_Requested::total            0                       # Table walker requests started/completed, data/inst
system.cpu.dtb.stage2_mmu.stage2_tlb.walker.requestOrigin_Completed::Data            0                       # Table walker requests started/completed, data/inst
system.cpu.dtb.stage2_mmu.stage2_tlb.walker.requestOrigin_Completed::Inst            0                       # Table walker requests started/completed, data/inst
system.cpu.dtb.stage2_mmu.stage2_tlb.walker.requestOrigin_Completed::total            0                       # Table walker requests started/completed, data/inst
system.cpu.dtb.stage2_mmu.stage2_tlb.walker.requestOrigin::total            0                       # Table walker requests started/completed, data/inst
system.cpu.dtb.stage2_mmu.stage2_tlb.walker.power_state.pwrStateResidencyTicks::UNDEFINED  80325660500                       # Cumulative time (in ticks) in various power states
system.cpu.dtb.walker.walks                         0                       # Table walker walks requested
system.cpu.dtb.walker.requestOrigin_Requested::Data            0                       # Table walker requests started/completed, data/inst
system.cpu.dtb.walker.requestOrigin_Requested::Inst            0                       # Table walker requests started/completed, data/inst
system.cpu.dtb.walker.requestOrigin_Requested::total            0                       # Table walker requests started/completed, data/inst
system.cpu.dtb.walker.requestOrigin_Completed::Data            0                       # Table walker requests started/completed, data/inst
system.cpu.dtb.walker.requestOrigin_Completed::Inst            0                       # Table walker requests started/completed, data/inst
system.cpu.dtb.walker.requestOrigin_Completed::total            0                       # Table walker requests started/completed, data/inst
system.cpu.dtb.walker.requestOrigin::total            0                       # Table walker requests started/completed, data/inst
system.cpu.dtb.walker.power_state.pwrStateResidencyTicks::UNDEFINED  80325660500                       # Cumulative time (in ticks) in various power states
system.cpu.fetch2.intInstructions            42685844                       # Number of integer instructions successfully decoded
system.cpu.fetch2.fpInstructions                    0                       # Number of floating point instructions successfully decoded
system.cpu.fetch2.vecInstructions                   0                       # Number of SIMD instructions successfully decoded
system.cpu.fetch2.loadInstructions           43474839                       # Number of memory load instructions successfully decoded
system.cpu.fetch2.storeInstructions          11024770                       # Number of memory store instructions successfully decoded
system.cpu.fetch2.amoInstructions                   0                       # Number of memory atomic instructions successfully decoded
system.cpu.icache.demand_hits::.cpu.inst     10277716                       # number of demand (read+write) hits
system.cpu.icache.demand_hits::total         10277716                       # number of demand (read+write) hits
system.cpu.icache.overall_hits::.cpu.inst     10277716                       # number of overall hits
system.cpu.icache.overall_hits::total        10277716                       # number of overall hits
system.cpu.icache.demand_misses::.cpu.inst          704                       # number of demand (read+write) misses
system.cpu.icache.demand_misses::total            704                       # number of demand (read+write) misses
system.cpu.icache.overall_misses::.cpu.inst          704                       # number of overall misses
system.cpu.icache.overall_misses::total           704                       # number of overall misses
system.cpu.icache.demand_miss_latency::.cpu.inst     52110000                       # number of demand (read+write) miss cycles
system.cpu.icache.demand_miss_latency::total     52110000                       # number of demand (read+write) miss cycles
system.cpu.icache.overall_miss_latency::.cpu.inst     52110000                       # number of overall miss cycles
system.cpu.icache.overall_miss_latency::total     52110000                       # number of overall miss cycles
system.cpu.icache.demand_accesses::.cpu.inst     10278420                       # number of demand (read+write) accesses
system.cpu.icache.demand_accesses::total     10278420                       # number of demand (read+write) accesses
system.cpu.icache.overall_accesses::.cpu.inst     10278420                       # number of overall (read+write) accesses
system.cpu.icache.overall_accesses::total     10278420                       # number of overall (read+write) accesses
system.cpu.icache.demand_miss_rate::.cpu.inst     0.000068                       # miss rate for demand accesses
system.cpu.icache.demand_miss_rate::total     0.000068                       # miss rate for demand accesses
system.cpu.icache.overall_miss_rate::.cpu.inst     0.000068                       # miss rate for overall accesses
system.cpu.icache.overall_miss_rate::total     0.000068                       # miss rate for overall accesses
system.cpu.icache.demand_avg_miss_latency::.cpu.inst 74019.886364                       # average overall miss latency
system.cpu.icache.demand_avg_miss_latency::total 74019.886364                       # average overall miss latency
system.cpu.icache.overall_avg_miss_latency::.cpu.inst 74019.886364                       # average overall miss latency
system.cpu.icache.overall_avg_miss_latency::total 74019.886364                       # average overall miss latency
system.cpu.icache.blocked_cycles::no_mshrs            0                       # number of cycles access was blocked
system.cpu.icache.blocked_cycles::no_targets            0                       # number of cycles access was blocked
system.cpu.icache.blocked::no_mshrs                 0                       # number of cycles access was blocked
system.cpu.icache.blocked::no_targets               0                       # number of cycles access was blocked
system.cpu.icache.avg_blocked_cycles::no_mshrs          nan                       # average number of cycles each access was blocked
system.cpu.icache.avg_blocked_cycles::no_targets          nan                       # average number of cycles each access was blocked
system.cpu.icache.writebacks::.writebacks          108                       # number of writebacks
system.cpu.icache.writebacks::total               108                       # number of writebacks
system.cpu.icache.demand_mshr_misses::.cpu.inst          704                       # number of demand (read+write) MSHR misses
system.cpu.icache.demand_mshr_misses::total          704                       # number of demand (read+write) MSHR misses
system.cpu.icache.overall_mshr_misses::.cpu.inst          704                       # number of overall MSHR misses
system.cpu.icache.overall_mshr_misses::total          704                       # number of overall MSHR misses
system.cpu.icache.demand_mshr_miss_latency::.cpu.inst     51406000                       # number of demand (read+write) MSHR miss cycles
system.cpu.icache.demand_mshr_miss_latency::total     51406000                       # number of demand (read+write) MSHR miss cycles
system.cpu.icache.overall_mshr_miss_latency::.cpu.inst     51406000                       # number of overall MSHR miss cycles
system.cpu.icache.overall_mshr_miss_latency::total     51406000                       # number of overall MSHR miss cycles
system.cpu.icache.demand_mshr_miss_rate::.cpu.inst     0.000068                       # mshr miss rate for demand accesses
system.cpu.icache.demand_mshr_miss_rate::total     0.000068                       # mshr miss rate for demand accesses
system.cpu.icache.overall_mshr_miss_rate::.cpu.inst     0.000068                       # mshr miss rate for overall accesses
system.cpu.icache.overall_mshr_miss_rate::total     0.000068                       # mshr miss rate for overall accesses
system.cpu.icache.demand_avg_mshr_miss_latency::.cpu.inst 73019.886364                       # average overall mshr miss latency
system.cpu.icache.demand_avg_mshr_miss_latency::total 73019.886364                       # average overall mshr miss latency
system.cpu.icache.overall_avg_mshr_miss_latency::.cpu.inst 73019.886364                       # average overall mshr miss latency
system.cpu.icache.overall_avg_mshr_miss_latency::total 73019.886364                       # average overall mshr miss latency
system.cpu.icache.replacements                    108                       # number of replacements
system.cpu.icache.ReadReq_hits::.cpu.inst     10277716                       # number of ReadReq hits
system.cpu.icache.ReadReq_hits::total        10277716                       # number of ReadReq hits
system.cpu.icache.ReadReq_misses::.cpu.inst          704                       # number of ReadReq misses
system.cpu.icache.ReadReq_misses::total           704                       # number of ReadReq misses
system.cpu.icache.ReadReq_miss_latency::.cpu.inst     52110000                       # number of ReadReq miss cycles
system.cpu.icache.ReadReq_miss_latency::total     52110000                       # number of ReadReq miss cycles
system.cpu.icache.ReadReq_accesses::.cpu.inst     10278420                       # number of ReadReq accesses(hits+misses)
system.cpu.icache.ReadReq_accesses::total     10278420                       # number of ReadReq accesses(hits+misses)
system.cpu.icache.ReadReq_miss_rate::.cpu.inst     0.000068                       # miss rate for ReadReq accesses
system.cpu.icache.ReadReq_miss_rate::total     0.000068                       # miss rate for ReadReq accesses
system.cpu.icache.ReadReq_avg_miss_latency::.cpu.inst 74019.886364                       # average ReadReq miss latency
system.cpu.icache.ReadReq_avg_miss_latency::total 74019.886364                       # average ReadReq miss latency
system.cpu.icache.ReadReq_mshr_misses::.cpu.inst          704                       # number of ReadReq MSHR misses
system.cpu.icache.ReadReq_mshr_misses::total          704                       # number of ReadReq MSHR misses
system.cpu.icache.ReadReq_mshr_miss_latency::.cpu.inst     51406000                       # number of ReadReq MSHR miss cycles
system.cpu.icache.ReadReq_mshr_miss_latency::total     51406000                       # number of ReadReq MSHR miss cycles
system.cpu.icache.ReadReq_mshr_miss_rate::.cpu.inst     0.000068                       # mshr miss rate for ReadReq accesses
system.cpu.icache.ReadReq_mshr_miss_rate::total     0.000068                       # mshr miss rate for ReadReq accesses
system.cpu.icache.ReadReq_avg_mshr_miss_latency::.cpu.inst 73019.886364                       # average ReadReq mshr miss latency
system.cpu.icache.ReadReq_avg_mshr_miss_latency::total 73019.886364                       # average ReadReq mshr miss latency
system.cpu.icache.power_state.pwrStateResidencyTicks::UNDEFINED  80325660500                       # Cumulative time (in ticks) in various power states
system.cpu.icache.tags.tagsinuse           488.900309                       # Cycle average of tags in use
system.cpu.icache.tags.total_refs            10278420                       # Total number of references to valid blocks.
system.cpu.icache.tags.sampled_refs               704                       # Sample count of references to valid blocks.
system.cpu.icache.tags.avg_refs          14600.028409                       # Average number of references to valid blocks.
system.cpu.icache.tags.warmup_cycle             87500                       # Cycle when the warmup percentage was hit.
system.cpu.icache.tags.occ_blocks::.cpu.inst   488.900309                       # Average occupied blocks per requestor
system.cpu.icache.tags.occ_percent::.cpu.inst     0.238721                       # Average percentage of cache occupancy
system.cpu.icache.tags.occ_percent::total     0.238721                       # Average percentage of cache occupancy
system.cpu.icache.tags.occ_task_id_blocks::1024          596                       # Occupied blocks per task id
system.cpu.icache.tags.age_task_id_blocks_1024::3          107                       # Occupied blocks per task id
system.cpu.icache.tags.age_task_id_blocks_1024::4          489                       # Occupied blocks per task id
system.cpu.icache.tags.occ_task_id_percent::1024     0.291016                       # Percentage of cache occupancy per task id
system.cpu.icache.tags.tag_accesses          10279124                       # Number of tag accesses
system.cpu.icache.tags.data_accesses         10279124                       # Number of data accesses
system.cpu.icache.tags.power_state.pwrStateResidencyTicks::UNDEFINED  80325660500                       # Cumulative time (in ticks) in various power states
system.cpu.itb.instHits                             0                       # ITB inst hits
system.cpu.itb.instMisses                           0                       # ITB inst misses
system.cpu.itb.readHits                             0                       # DTB read hits
system.cpu.itb.readMisses                           0                       # DTB read misses
system.cpu.itb.writeHits                            0                       # DTB write hits
system.cpu.itb.writeMisses                          0                       # DTB write misses
system.cpu.itb.inserts                              0                       # Number of times an entry is inserted into the TLB
system.cpu.itb.flushTlb                             0                       # Number of times complete TLB was flushed
system.cpu.itb.flushTlbMva                          0                       # Number of times TLB was flushed by MVA
system.cpu.itb.flushTlbMvaAsid                      0                       # Number of times TLB was flushed by MVA & ASID
system.cpu.itb.flushTlbAsid                         0                       # Number of times TLB was flushed by ASID
system.cpu.itb.flushedEntries                       0                       # Number of entries that have been flushed from TLB
system.cpu.itb.alignFaults                          0                       # Number of TLB faults due to alignment restrictions
system.cpu.itb.prefetchFaults                       0                       # Number of TLB faults due to prefetch
system.cpu.itb.domainFaults                         0                       # Number of TLB faults due to domain restrictions
system.cpu.itb.permsFaults                          0                       # Number of TLB faults due to permissions restrictions
system.cpu.itb.readAccesses                         0                       # DTB read accesses
system.cpu.itb.writeAccesses                        0                       # DTB write accesses
system.cpu.itb.instAccesses                         0                       # ITB inst accesses
system.cpu.itb.hits                                 0                       # Total TLB (inst and data) hits
system.cpu.itb.misses                               0                       # Total TLB (inst and data) misses
system.cpu.itb.accesses                             0                       # Total TLB (inst and data) accesses
system.cpu.itb.stage2_mmu.stage2_tlb.instHits            0                       # ITB inst hits
system.cpu.itb.stage2_mmu.stage2_tlb.instMisses            0                       # ITB inst misses
system.cpu.itb.stage2_mmu.stage2_tlb.readHits            0                       # DTB read hits
system.cpu.itb.stage2_mmu.stage2_tlb.readMisses            0                       # DTB read misses
system.cpu.itb.stage2_mmu.stage2_tlb.writeHits            0                       # DTB write hits
system.cpu.itb.stage2_mmu.stage2_tlb.writeMisses            0                       # DTB write misses
system.cpu.itb.stage2_mmu.stage2_tlb.inserts            0                       # Number of times an entry is inserted into the TLB
system.cpu.itb.stage2_mmu.stage2_tlb.flushTlb            0                       # Number of times complete TLB was flushed
system.cpu.itb.stage2_mmu.stage2_tlb.flushTlbMva            0                       # Number of times TLB was flushed by MVA
system.cpu.itb.stage2_mmu.stage2_tlb.flushTlbMvaAsid            0                       # Number of times TLB was flushed by MVA & ASID
system.cpu.itb.stage2_mmu.stage2_tlb.flushTlbAsid            0                       # Number of times TLB was flushed by ASID
system.cpu.itb.stage2_mmu.stage2_tlb.flushedEntries            0                       # Number of entries that have been flushed from TLB
system.cpu.itb.stage2_mmu.stage2_tlb.alignFaults            0                       # Number of TLB faults due to alignment restrictions
system.cpu.itb.stage2_mmu.stage2_tlb.prefetchFaults            0                       # Number of TLB faults due to prefetch
system.cpu.itb.stage2_mmu.stage2_tlb.domainFaults            0                       # Number of TLB faults due to domain restrictions
system.cpu.itb.stage2_mmu.stage2_tlb.permsFaults            0                       # Number of TLB faults due to permissions restrictions
system.cpu.itb.stage2_mmu.stage2_tlb.readAccesses            0                       # DTB read accesses
system.cpu.itb.stage2_mmu.stage2_tlb.writeAccesses            0                       # DTB write accesses
system.cpu.itb.stage2_mmu.stage2_tlb.instAccesses            0                       # ITB inst accesses
system.cpu.itb.stage2_mmu.stage2_tlb.hits            0                       # Total TLB (inst and data) hits
system.cpu.itb.stage2_mmu.stage2_tlb.misses            0                       # Total TLB (inst and data) misses
system.cpu.itb.stage2_mmu.stage2_tlb.accesses            0                       # Total TLB (inst and data) accesses
system.cpu.itb.stage2_mmu.stage2_tlb.walker.walks            0                       # Table walker walks requested
system.cpu.itb.stage2_mmu.stage2_tlb.walker.requestOrigin_Requested::Data            0                       # Table walker requests started/completed, data/inst
system.cpu.itb.stage2_mmu.stage2_tlb.walker.requestOrigin_Requested::Inst            0                       # Table walker requests started/completed, data/inst
system.cpu.itb.stage2_mmu.stage2_tlb.walker.requestOrigin_Requested::total            0                       # Table walker requests started/completed, data/inst
system.cpu.itb.stage2_mmu.stage2_tlb.walker.requestOrigin_Completed::Data            0                       # Table walker requests started/completed, data/inst
system.cpu.itb.stage2_mmu.stage2_tlb.walker.requestOrigin_Completed::Inst            0                       # Table walker requests started/completed, data/inst
system.cpu.itb.stage2_mmu.stage2_tlb.walker.requestOrigin_Completed::total            0                       # Table walker requests started/completed, data/inst
system.cpu.itb.stage2_mmu.stage2_tlb.walker.requestOrigin::total            0                       # Table walker requests started/completed, data/inst
system.cpu.itb.stage2_mmu.stage2_tlb.walker.power_state.pwrStateResidencyTicks::UNDEFINED  80325660500                       # Cumulative time (in ticks) in various power states
system.cpu.itb.walker.walks                         0                       # Table walker walks requested
system.cpu.itb.walker.requestOrigin_Requested::Data            0                       # Table walker requests started/completed, data/inst
system.cpu.itb.walker.requestOrigin_Requested::Inst            0                       # Table walker requests started/completed, data/inst
system.cpu.itb.walker.requestOrigin_Requested::total            0                       # Table walker requests started/completed, data/inst
system.cpu.itb.walker.requestOrigin_Completed::Data            0                       # Table walker requests started/completed, data/inst
system.cpu.itb.walker.requestOrigin_Completed::Inst            0                       # Table walker requests started/completed, data/inst
system.cpu.itb.walker.requestOrigin_Completed::total            0                       # Table walker requests started/completed, data/inst
system.cpu.itb.walker.requestOrigin::total            0                       # Table walker requests started/completed, data/inst
system.cpu.itb.walker.power_state.pwrStateResidencyTicks::UNDEFINED  80325660500                       # Cumulative time (in ticks) in various power states
system.cpu.power_state.pwrStateResidencyTicks::ON  80325660500                       # Cumulative time (in ticks) in various power states
system.cpu.thread0.numInsts                 100000001                       # Number of Instructions committed
system.cpu.thread0.numOps                   100196356                       # Number of Ops committed
system.cpu.thread0.numMemRefs                       0                       # Number of Memory References
system.cpu_clk_domain.clock                       500                       # Clock period in ticks
system.cpu_voltage_domain.voltage                   1                       # Voltage in Volts
system.l2.demand_hits::.cpu.inst                   45                       # number of demand (read+write) hits
system.l2.demand_hits::.cpu.data               282876                       # number of demand (read+write) hits
system.l2.demand_hits::total                   282921                       # number of demand (read+write) hits
system.l2.overall_hits::.cpu.inst                  45                       # number of overall hits
system.l2.overall_hits::.cpu.data              282876                       # number of overall hits
system.l2.overall_hits::total                  282921                       # number of overall hits
system.l2.demand_misses::.cpu.inst                659                       # number of demand (read+write) misses
system.l2.demand_misses::.cpu.data             179288                       # number of demand (read+write) misses
system.l2.demand_misses::total                 179947                       # number of demand (read+write) misses
system.l2.overall_misses::.cpu.inst               659                       # number of overall misses
system.l2.overall_misses::.cpu.data            179288                       # number of overall misses
system.l2.overall_misses::total                179947                       # number of overall misses
system.l2.demand_miss_latency::.cpu.inst     49857000                       # number of demand (read+write) miss cycles
system.l2.demand_miss_latency::.cpu.data  14847130000                       # number of demand (read+write) miss cycles
system.l2.demand_miss_latency::total      14896987000                       # number of demand (read+write) miss cycles
system.l2.overall_miss_latency::.cpu.inst     49857000                       # number of overall miss cycles
system.l2.overall_miss_latency::.cpu.data  14847130000                       # number of overall miss cycles
system.l2.overall_miss_latency::total     14896987000                       # number of overall miss cycles
system.l2.demand_accesses::.cpu.inst              704                       # number of demand (read+write) accesses
system.l2.demand_accesses::.cpu.data           462164                       # number of demand (read+write) accesses
system.l2.demand_accesses::total               462868                       # number of demand (read+write) accesses
system.l2.overall_accesses::.cpu.inst             704                       # number of overall (read+write) accesses
system.l2.overall_accesses::.cpu.data          462164                       # number of overall (read+write) accesses
system.l2.overall_accesses::total              462868                       # number of overall (read+write) accesses
system.l2.demand_miss_rate::.cpu.inst        0.936080                       # miss rate for demand accesses
system.l2.demand_miss_rate::.cpu.data        0.387932                       # miss rate for demand accesses
system.l2.demand_miss_rate::total            0.388765                       # miss rate for demand accesses
system.l2.overall_miss_rate::.cpu.inst       0.936080                       # miss rate for overall accesses
system.l2.overall_miss_rate::.cpu.data       0.387932                       # miss rate for overall accesses
system.l2.overall_miss_rate::total           0.388765                       # miss rate for overall accesses
system.l2.demand_avg_miss_latency::.cpu.inst 75655.538695                       # average overall miss latency
system.l2.demand_avg_miss_latency::.cpu.data 82811.621525                       # average overall miss latency
system.l2.demand_avg_miss_latency::total 82785.414594                       # average overall miss latency
system.l2.overall_avg_miss_latency::.cpu.inst 75655.538695                       # average overall miss latency
system.l2.overall_avg_miss_latency::.cpu.data 82811.621525                       # average overall miss latency
system.l2.overall_avg_miss_latency::total 82785.414594                       # average overall miss latency
system.l2.blocked_cycles::no_mshrs                  0                       # number of cycles access was blocked
system.l2.blocked_cycles::no_targets                0                       # number of cycles access was blocked
system.l2.blocked::no_mshrs                         0                       # number of cycles access was blocked
system.l2.blocked::no_targets                       0                       # number of cycles access was blocked
system.l2.avg_blocked_cycles::no_mshrs            nan                       # average number of cycles each access was blocked
system.l2.avg_blocked_cycles::no_targets          nan                       # average number of cycles each access was blocked
system.l2.writebacks::.writebacks               68606                       # number of writebacks
system.l2.writebacks::total                     68606                       # number of writebacks
system.l2.demand_mshr_hits::.cpu.data               6                       # number of demand (read+write) MSHR hits
system.l2.demand_mshr_hits::total                   6                       # number of demand (read+write) MSHR hits
system.l2.overall_mshr_hits::.cpu.data              6                       # number of overall MSHR hits
system.l2.overall_mshr_hits::total                  6                       # number of overall MSHR hits
system.l2.demand_mshr_misses::.cpu.inst           659                       # number of demand (read+write) MSHR misses
system.l2.demand_mshr_misses::.cpu.data        179282                       # number of demand (read+write) MSHR misses
system.l2.demand_mshr_misses::total            179941                       # number of demand (read+write) MSHR misses
system.l2.overall_mshr_misses::.cpu.inst          659                       # number of overall MSHR misses
system.l2.overall_mshr_misses::.cpu.data       179282                       # number of overall MSHR misses
system.l2.overall_mshr_misses::total           179941                       # number of overall MSHR misses
system.l2.demand_mshr_miss_latency::.cpu.inst     43267000                       # number of demand (read+write) MSHR miss cycles
system.l2.demand_mshr_miss_latency::.cpu.data  13053932500                       # number of demand (read+write) MSHR miss cycles
system.l2.demand_mshr_miss_latency::total  13097199500                       # number of demand (read+write) MSHR miss cycles
system.l2.overall_mshr_miss_latency::.cpu.inst     43267000                       # number of overall MSHR miss cycles
system.l2.overall_mshr_miss_latency::.cpu.data  13053932500                       # number of overall MSHR miss cycles
system.l2.overall_mshr_miss_latency::total  13097199500                       # number of overall MSHR miss cycles
system.l2.demand_mshr_miss_rate::.cpu.inst     0.936080                       # mshr miss rate for demand accesses
system.l2.demand_mshr_miss_rate::.cpu.data     0.387919                       # mshr miss rate for demand accesses
system.l2.demand_mshr_miss_rate::total       0.388752                       # mshr miss rate for demand accesses
system.l2.overall_mshr_miss_rate::.cpu.inst     0.936080                       # mshr miss rate for overall accesses
system.l2.overall_mshr_miss_rate::.cpu.data     0.387919                       # mshr miss rate for overall accesses
system.l2.overall_mshr_miss_rate::total      0.388752                       # mshr miss rate for overall accesses
system.l2.demand_avg_mshr_miss_latency::.cpu.inst 65655.538695                       # average overall mshr miss latency
system.l2.demand_avg_mshr_miss_latency::.cpu.data 72812.287346                       # average overall mshr miss latency
system.l2.demand_avg_mshr_miss_latency::total 72786.077103                       # average overall mshr miss latency
system.l2.overall_avg_mshr_miss_latency::.cpu.inst 65655.538695                       # average overall mshr miss latency
system.l2.overall_avg_mshr_miss_latency::.cpu.data 72812.287346                       # average overall mshr miss latency
system.l2.overall_avg_mshr_miss_latency::total 72786.077103                       # average overall mshr miss latency
system.l2.replacements                         114452                       # number of replacements
system.l2.WritebackDirty_hits::.writebacks       405893                       # number of WritebackDirty hits
system.l2.WritebackDirty_hits::total           405893                       # number of WritebackDirty hits
system.l2.WritebackDirty_accesses::.writebacks       405893                       # number of WritebackDirty accesses(hits+misses)
system.l2.WritebackDirty_accesses::total       405893                       # number of WritebackDirty accesses(hits+misses)
system.l2.WritebackClean_hits::.writebacks          100                       # number of WritebackClean hits
system.l2.WritebackClean_hits::total              100                       # number of WritebackClean hits
system.l2.WritebackClean_accesses::.writebacks          100                       # number of WritebackClean accesses(hits+misses)
system.l2.WritebackClean_accesses::total          100                       # number of WritebackClean accesses(hits+misses)
system.l2.ReadExReq_hits::.cpu.data             96689                       # number of ReadExReq hits
system.l2.ReadExReq_hits::total                 96689                       # number of ReadExReq hits
system.l2.ReadExReq_misses::.cpu.data          127637                       # number of ReadExReq misses
system.l2.ReadExReq_misses::total              127637                       # number of ReadExReq misses
system.l2.ReadExReq_miss_latency::.cpu.data  10861243500                       # number of ReadExReq miss cycles
system.l2.ReadExReq_miss_latency::total   10861243500                       # number of ReadExReq miss cycles
system.l2.ReadExReq_accesses::.cpu.data        224326                       # number of ReadExReq accesses(hits+misses)
system.l2.ReadExReq_accesses::total            224326                       # number of ReadExReq accesses(hits+misses)
system.l2.ReadExReq_miss_rate::.cpu.data     0.568980                       # miss rate for ReadExReq accesses
system.l2.ReadExReq_miss_rate::total         0.568980                       # miss rate for ReadExReq accesses
system.l2.ReadExReq_avg_miss_latency::.cpu.data 85094.788345                       # average ReadExReq miss latency
system.l2.ReadExReq_avg_miss_latency::total 85094.788345                       # average ReadExReq miss latency
system.l2.ReadExReq_mshr_misses::.cpu.data       127637                       # number of ReadExReq MSHR misses
system.l2.ReadExReq_mshr_misses::total         127637                       # number of ReadExReq MSHR misses
system.l2.ReadExReq_mshr_miss_latency::.cpu.data   9584873500                       # number of ReadExReq MSHR miss cycles
system.l2.ReadExReq_mshr_miss_latency::total   9584873500                       # number of ReadExReq MSHR miss cycles
system.l2.ReadExReq_mshr_miss_rate::.cpu.data     0.568980                       # mshr miss rate for ReadExReq accesses
system.l2.ReadExReq_mshr_miss_rate::total     0.568980                       # mshr miss rate for ReadExReq accesses
system.l2.ReadExReq_avg_mshr_miss_latency::.cpu.data 75094.788345                       # average ReadExReq mshr miss latency
system.l2.ReadExReq_avg_mshr_miss_latency::total 75094.788345                       # average ReadExReq mshr miss latency
system.l2.ReadCleanReq_hits::.cpu.inst             45                       # number of ReadCleanReq hits
system.l2.ReadCleanReq_hits::total                 45                       # number of ReadCleanReq hits
system.l2.ReadCleanReq_misses::.cpu.inst          659                       # number of ReadCleanReq misses
system.l2.ReadCleanReq_misses::total              659                       # number of ReadCleanReq misses
system.l2.ReadCleanReq_miss_latency::.cpu.inst     49857000                       # number of ReadCleanReq miss cycles
system.l2.ReadCleanReq_miss_latency::total     49857000                       # number of ReadCleanReq miss cycles
system.l2.ReadCleanReq_accesses::.cpu.inst          704                       # number of ReadCleanReq accesses(hits+misses)
system.l2.ReadCleanReq_accesses::total            704                       # number of ReadCleanReq accesses(hits+misses)
system.l2.ReadCleanReq_miss_rate::.cpu.inst     0.936080                       # miss rate for ReadCleanReq accesses
system.l2.ReadCleanReq_miss_rate::total      0.936080                       # miss rate for ReadCleanReq accesses
system.l2.ReadCleanReq_avg_miss_latency::.cpu.inst 75655.538695                       # average ReadCleanReq miss latency
system.l2.ReadCleanReq_avg_miss_latency::total 75655.538695                       # average ReadCleanReq miss latency
system.l2.ReadCleanReq_mshr_misses::.cpu.inst          659                       # number of ReadCleanReq MSHR misses
system.l2.ReadCleanReq_mshr_misses::total          659                       # number of ReadCleanReq MSHR misses
system.l2.ReadCleanReq_mshr_miss_latency::.cpu.inst     43267000                       # number of ReadCleanReq MSHR miss cycles
system.l2.ReadCleanReq_mshr_miss_latency::total     43267000                       # number of ReadCleanReq MSHR miss cycles
system.l2.ReadCleanReq_mshr_miss_rate::.cpu.inst     0.936080                       # mshr miss rate for ReadCleanReq accesses
system.l2.ReadCleanReq_mshr_miss_rate::total     0.936080                       # mshr miss rate for ReadCleanReq accesses
system.l2.ReadCleanReq_avg_mshr_miss_latency::.cpu.inst 65655.538695                       # average ReadCleanReq mshr miss latency
system.l2.ReadCleanReq_avg_mshr_miss_latency::total 65655.538695                       # average ReadCleanReq mshr miss latency
system.l2.ReadSharedReq_hits::.cpu.data        186187                       # number of ReadSharedReq hits
system.l2.ReadSharedReq_hits::total            186187                       # number of ReadSharedReq hits
system.l2.ReadSharedReq_misses::.cpu.data        51651                       # number of ReadSharedReq misses
system.l2.ReadSharedReq_misses::total           51651                       # number of ReadSharedReq misses
system.l2.ReadSharedReq_miss_latency::.cpu.data   3985886500                       # number of ReadSharedReq miss cycles
system.l2.ReadSharedReq_miss_latency::total   3985886500                       # number of ReadSharedReq miss cycles
system.l2.ReadSharedReq_accesses::.cpu.data       237838                       # number of ReadSharedReq accesses(hits+misses)
system.l2.ReadSharedReq_accesses::total        237838                       # number of ReadSharedReq accesses(hits+misses)
system.l2.ReadSharedReq_miss_rate::.cpu.data     0.217169                       # miss rate for ReadSharedReq accesses
system.l2.ReadSharedReq_miss_rate::total     0.217169                       # miss rate for ReadSharedReq accesses
system.l2.ReadSharedReq_avg_miss_latency::.cpu.data 77169.590134                       # average ReadSharedReq miss latency
system.l2.ReadSharedReq_avg_miss_latency::total 77169.590134                       # average ReadSharedReq miss latency
system.l2.ReadSharedReq_mshr_hits::.cpu.data            6                       # number of ReadSharedReq MSHR hits
system.l2.ReadSharedReq_mshr_hits::total            6                       # number of ReadSharedReq MSHR hits
system.l2.ReadSharedReq_mshr_misses::.cpu.data        51645                       # number of ReadSharedReq MSHR misses
system.l2.ReadSharedReq_mshr_misses::total        51645                       # number of ReadSharedReq MSHR misses
system.l2.ReadSharedReq_mshr_miss_latency::.cpu.data   3469059000                       # number of ReadSharedReq MSHR miss cycles
system.l2.ReadSharedReq_mshr_miss_latency::total   3469059000                       # number of ReadSharedReq MSHR miss cycles
system.l2.ReadSharedReq_mshr_miss_rate::.cpu.data     0.217144                       # mshr miss rate for ReadSharedReq accesses
system.l2.ReadSharedReq_mshr_miss_rate::total     0.217144                       # mshr miss rate for ReadSharedReq accesses
system.l2.ReadSharedReq_avg_mshr_miss_latency::.cpu.data 67171.246006                       # average ReadSharedReq mshr miss latency
system.l2.ReadSharedReq_avg_mshr_miss_latency::total 67171.246006                       # average ReadSharedReq mshr miss latency
system.l2.power_state.pwrStateResidencyTicks::UNDEFINED  80325660500                       # Cumulative time (in ticks) in various power states
system.l2.tags.tagsinuse                 63115.947518                       # Cycle average of tags in use
system.l2.tags.total_refs                      923025                       # Total number of references to valid blocks.
system.l2.tags.sampled_refs                    179988                       # Sample count of references to valid blocks.
system.l2.tags.avg_refs                      5.128259                       # Average number of references to valid blocks.
system.l2.tags.warmup_cycle                     77000                       # Cycle when the warmup percentage was hit.
system.l2.tags.occ_blocks::.writebacks      20.997397                       # Average occupied blocks per requestor
system.l2.tags.occ_blocks::.cpu.inst       119.769371                       # Average occupied blocks per requestor
system.l2.tags.occ_blocks::.cpu.data     62975.180750                       # Average occupied blocks per requestor
system.l2.tags.occ_percent::.writebacks      0.000320                       # Average percentage of cache occupancy
system.l2.tags.occ_percent::.cpu.inst        0.001828                       # Average percentage of cache occupancy
system.l2.tags.occ_percent::.cpu.data        0.960925                       # Average percentage of cache occupancy
system.l2.tags.occ_percent::total            0.963073                       # Average percentage of cache occupancy
system.l2.tags.occ_task_id_blocks::1024         65536                       # Occupied blocks per task id
system.l2.tags.age_task_id_blocks_1024::3         5786                       # Occupied blocks per task id
system.l2.tags.age_task_id_blocks_1024::4        59750                       # Occupied blocks per task id
system.l2.tags.occ_task_id_percent::1024            1                       # Percentage of cache occupancy per task id
system.l2.tags.tag_accesses                  29716980                       # Number of tag accesses
system.l2.tags.data_accesses                 29716980                       # Number of data accesses
system.l2.tags.power_state.pwrStateResidencyTicks::UNDEFINED  80325660500                       # Cumulative time (in ticks) in various power states
system.mem_ctrls.avgPriority_.writebacks::samples     68606.00                       # Average QoS priority value for accepted requests
system.mem_ctrls.avgPriority_.cpu.inst::samples       659.00                       # Average QoS priority value for accepted requests
system.mem_ctrls.avgPriority_.cpu.data::samples    179282.00                       # Average QoS priority value for accepted requests
system.mem_ctrls.priorityMinLatency      0.000000018750                       # per QoS priority minimum request to response latency (s)
system.mem_ctrls.priorityMaxLatency      0.002874002500                       # per QoS priority maximum request to response latency (s)
system.mem_ctrls.numReadWriteTurnArounds         4117                       # Number of turnarounds from READ to WRITE
system.mem_ctrls.numWriteReadTurnArounds         4117                       # Number of turnarounds from WRITE to READ
system.mem_ctrls.numStayReadState              442319                       # Number of times bus staying in READ state
system.mem_ctrls.numStayWriteState              64549                       # Number of times bus staying in WRITE state
system.mem_ctrls.readReqs                      179941                       # Number of read requests accepted
system.mem_ctrls.writeReqs                      68606                       # Number of write requests accepted
system.mem_ctrls.readBursts                    179941                       # Number of controller read bursts, including those serviced by the write queue
system.mem_ctrls.writeBursts                    68606                       # Number of controller write bursts, including those merged in the write queue
system.mem_ctrls.servicedByWrQ                      0                       # Number of controller read bursts serviced by the write queue
system.mem_ctrls.mergedWrBursts                     0                       # Number of controller write bursts merged with an existing one
system.mem_ctrls.neitherReadNorWriteReqs            0                       # Number of requests that are neither read nor write
system.mem_ctrls.avgRdQLen                       1.08                       # Average read queue length when enqueuing
system.mem_ctrls.avgWrQLen                      24.27                       # Average write queue length when enqueuing
system.mem_ctrls.numRdRetry                         0                       # Number of times read queue was full causing retry
system.mem_ctrls.numWrRetry                         0                       # Number of times write queue was full causing retry
system.mem_ctrls.readPktSize::0                     0                       # Read request sizes (log2)
system.mem_ctrls.readPktSize::1                     0                       # Read request sizes (log2)
system.mem_ctrls.readPktSize::2                     0                       # Read request sizes (log2)
system.mem_ctrls.readPktSize::3                     0                       # Read request sizes (log2)
system.mem_ctrls.readPktSize::4                     0                       # Read request sizes (log2)
system.mem_ctrls.readPktSize::5                     0                       # Read request sizes (log2)
system.mem_ctrls.readPktSize::6                179941                       # Read request sizes (log2)
system.mem_ctrls.writePktSize::0                    0                       # Write request sizes (log2)
system.mem_ctrls.writePktSize::1                    0                       # Write request sizes (log2)
system.mem_ctrls.writePktSize::2                    0                       # Write request sizes (log2)
system.mem_ctrls.writePktSize::3                    0                       # Write request sizes (log2)
system.mem_ctrls.writePktSize::4                    0                       # Write request sizes (log2)
system.mem_ctrls.writePktSize::5                    0                       # Write request sizes (log2)
system.mem_ctrls.writePktSize::6                68606                       # Write request sizes (log2)
system.mem_ctrls.rdQLenPdf::0                  120879                       # What read queue length does an incoming req see
system.mem_ctrls.rdQLenPdf::1                   56457                       # What read queue length does an incoming req see
system.mem_ctrls.rdQLenPdf::2                    2306                       # What read queue length does an incoming req see
system.mem_ctrls.rdQLenPdf::3                     298                       # What read queue length does an incoming req see
system.mem_ctrls.rdQLenPdf::4                       1                       # What read queue length does an incoming req see
system.mem_ctrls.rdQLenPdf::5                       0                       # What read queue length does an incoming req see
system.mem_ctrls.rdQLenPdf::6                       0                       # What read queue length does an incoming req see
system.mem_ctrls.rdQLenPdf::7                       0                       # What read queue length does an incoming req see
system.mem_ctrls.rdQLenPdf::8                       0                       # What read queue length does an incoming req see
system.mem_ctrls.rdQLenPdf::9                       0                       # What read queue length does an incoming req see
system.mem_ctrls.rdQLenPdf::10                      0                       # What read queue length does an incoming req see
system.mem_ctrls.rdQLenPdf::11                      0                       # What read queue length does an incoming req see
system.mem_ctrls.rdQLenPdf::12                      0                       # What read queue length does an incoming req see
[...]
system.mem_ctrls.dram.bw_write::.writebacks     54662283                       # Write bandwidth from this memory (bytes/s)
system.mem_ctrls.dram.bw_write::total        54662283                       # Write bandwidth from this memory (bytes/s)
system.mem_ctrls.dram.bw_total::.writebacks     54662283                       # Total bandwidth to/from this memory (bytes/s)
system.mem_ctrls.dram.bw_total::.cpu.inst       525063                       # Total bandwidth to/from this memory (bytes/s)
system.mem_ctrls.dram.bw_total::.cpu.data    142844116                       # Total bandwidth to/from this memory (bytes/s)
system.mem_ctrls.dram.bw_total::total       198031462                       # Total bandwidth to/from this memory (bytes/s)
system.mem_ctrls.dram.readBursts               179941                       # Number of DRAM read bursts
system.mem_ctrls.dram.writeBursts               68588                       # Number of DRAM write bursts
system.mem_ctrls.dram.perBankRdBursts::0        11309                       # Per bank write bursts
system.mem_ctrls.dram.perBankRdBursts::1        11364                       # Per bank write bursts
system.mem_ctrls.dram.perBankRdBursts::2        11357                       # Per bank write bursts
system.mem_ctrls.dram.perBankRdBursts::3        11354                       # Per bank write bursts
system.mem_ctrls.dram.perBankRdBursts::4        11382                       # Per bank write bursts
system.mem_ctrls.dram.perBankRdBursts::5        11187                       # Per bank write bursts
system.mem_ctrls.dram.perBankRdBursts::6        11206                       # Per bank write bursts
system.mem_ctrls.dram.perBankRdBursts::7        11130                       # Per bank write bursts
system.mem_ctrls.dram.perBankRdBursts::8        11219                       # Per bank write bursts
system.mem_ctrls.dram.perBankRdBursts::9        11015                       # Per bank write bursts
system.mem_ctrls.dram.perBankRdBursts::10        11282                       # Per bank write bursts
system.mem_ctrls.dram.perBankRdBursts::11        11266                       # Per bank write bursts
system.mem_ctrls.dram.perBankRdBursts::12        11268                       # Per bank write bursts
system.mem_ctrls.dram.perBankRdBursts::13        11269                       # Per bank write bursts
system.mem_ctrls.dram.perBankRdBursts::14        11184                       # Per bank write bursts
system.mem_ctrls.dram.perBankRdBursts::15        11149                       # Per bank write bursts
system.mem_ctrls.dram.perBankWrBursts::0         4265                       # Per bank write bursts
system.mem_ctrls.dram.perBankWrBursts::1         4352                       # Per bank write bursts
system.mem_ctrls.dram.perBankWrBursts::2         4360                       # Per bank write bursts
system.mem_ctrls.dram.perBankWrBursts::3         4389                       # Per bank write bursts
system.mem_ctrls.dram.perBankWrBursts::4         4381                       # Per bank write bursts
system.mem_ctrls.dram.perBankWrBursts::5         4366                       # Per bank write bursts
system.mem_ctrls.dram.perBankWrBursts::6         4362                       # Per bank write bursts
system.mem_ctrls.dram.perBankWrBursts::7         4319                       # Per bank write bursts
system.mem_ctrls.dram.perBankWrBursts::8         4273                       # Per bank write bursts
system.mem_ctrls.dram.perBankWrBursts::9         4176                       # Per bank write bursts
system.mem_ctrls.dram.perBankWrBursts::10         4225                       # Per bank write bursts
system.mem_ctrls.dram.perBankWrBursts::11         4224                       # Per bank write bursts
system.mem_ctrls.dram.perBankWrBursts::12         4224                       # Per bank write bursts
system.mem_ctrls.dram.perBankWrBursts::13         4224                       # Per bank write bursts
system.mem_ctrls.dram.perBankWrBursts::14         4224                       # Per bank write bursts
system.mem_ctrls.dram.perBankWrBursts::15         4224                       # Per bank write bursts
system.mem_ctrls.dram.totQLat              2305538750                       # Total ticks spent queuing
system.mem_ctrls.dram.totBusLat             899705000                       # Total ticks spent in databus transfers
system.mem_ctrls.dram.totMemAccLat         5679432500                       # Total ticks spent from burst creation until serviced by the DRAM
system.mem_ctrls.dram.avgQLat                12812.75                       # Average queueing delay per DRAM burst
system.mem_ctrls.dram.avgBusLat               5000.00                       # Average bus latency per DRAM burst
system.mem_ctrls.dram.avgMemAccLat           31562.75                       # Average memory access latency per DRAM burst
system.mem_ctrls.dram.readRowHits              131327                       # Number of row buffer hits during reads
system.mem_ctrls.dram.writeRowHits              50969                       # Number of row buffer hits during writes
system.mem_ctrls.dram.readRowHitRate            72.98                       # Row buffer hit rate for reads
system.mem_ctrls.dram.writeRowHitRate           74.31                       # Row buffer hit rate for writes
system.mem_ctrls.dram.bytesPerActivate::samples        66233                       # Bytes accessed per row activation
system.mem_ctrls.dram.bytesPerActivate::mean   240.150016                       # Bytes accessed per row activation
system.mem_ctrls.dram.bytesPerActivate::gmean   134.269365                       # Bytes accessed per row activation
system.mem_ctrls.dram.bytesPerActivate::stdev   290.068475                       # Bytes accessed per row activation
system.mem_ctrls.dram.bytesPerActivate::0-127        38552     58.21%     58.21% # Bytes accessed per row activation
system.mem_ctrls.dram.bytesPerActivate::128-255         8683     13.11%     71.32% # Bytes accessed per row activation
system.mem_ctrls.dram.bytesPerActivate::256-383         1711      2.58%     73.90% # Bytes accessed per row activation
system.mem_ctrls.dram.bytesPerActivate::384-511         1624      2.45%     76.35% # Bytes accessed per row activation
system.mem_ctrls.dram.bytesPerActivate::512-639         8327     12.57%     88.92% # Bytes accessed per row activation
system.mem_ctrls.dram.bytesPerActivate::640-767         1612      2.43%     91.36% # Bytes accessed per row activation
system.mem_ctrls.dram.bytesPerActivate::768-895          434      0.66%     92.01% # Bytes accessed per row activation
system.mem_ctrls.dram.bytesPerActivate::896-1023          468      0.71%     92.72% # Bytes accessed per row activation
system.mem_ctrls.dram.bytesPerActivate::1024-1151         4822      7.28%    100.00% # Bytes accessed per row activation
system.mem_ctrls.dram.bytesPerActivate::total        66233                       # Bytes accessed per row activation
system.mem_ctrls.dram.bytesRead              11516224                       # Total number of bytes read from DRAM
system.mem_ctrls.dram.bytesWritten            4389632                       # Total number of bytes written to DRAM
system.mem_ctrls.dram.avgRdBW              143.369179                       # Average DRAM read bandwidth in MiBytes/s
system.mem_ctrls.dram.avgWrBW               54.647942                       # Average DRAM write bandwidth in MiBytes/s
system.mem_ctrls.dram.peakBW                 12800.00                       # Theoretical peak bandwidth in MiByte/s
system.mem_ctrls.dram.busUtil                    1.55                       # Data bus utilization in percentage
system.mem_ctrls.dram.busUtilRead                1.12                       # Data bus utilization in percentage for reads
system.mem_ctrls.dram.busUtilWrite               0.43                       # Data bus utilization in percentage for writes
system.mem_ctrls.dram.pageHitRate               73.35                       # Row buffer hit rate, read and write combined
system.mem_ctrls.dram.power_state.pwrStateResidencyTicks::UNDEFINED  80325660500                       # Cumulative time (in ticks) in various power states
system.mem_ctrls.dram.rank0.actEnergy       240675120                       # Energy for activate commands per rank (pJ)
system.mem_ctrls.dram.rank0.preEnergy       127921860                       # Energy for precharge commands per rank (pJ)
system.mem_ctrls.dram.rank0.readEnergy      644663460                       # Energy for read commands per rank (pJ)
system.mem_ctrls.dram.rank0.writeEnergy     181624680                       # Energy for write commands per rank (pJ)
system.mem_ctrls.dram.rank0.refreshEnergy 6340626240.000001                       # Energy for refresh commands per rank (pJ)
system.mem_ctrls.dram.rank0.actBackEnergy  18985904850                       # Energy for active background per rank (pJ)
system.mem_ctrls.dram.rank0.preBackEnergy  14856923520                       # Energy for precharge background per rank (pJ)
system.mem_ctrls.dram.rank0.actPowerDownEnergy            0                       # Energy for active power-down per rank (pJ)
system.mem_ctrls.dram.rank0.prePowerDownEnergy            0                       # Energy for precharge power-down per rank (pJ)
system.mem_ctrls.dram.rank0.selfRefreshEnergy            0                       # Energy for self refresh per rank (pJ)
system.mem_ctrls.dram.rank0.totalEnergy   41378339730                       # Total energy per rank (pJ)
system.mem_ctrls.dram.rank0.averagePower   515.132269                       # Core power per rank (mW)
system.mem_ctrls.dram.rank0.totalIdleTime            0                       # Total Idle time Per DRAM Rank
system.mem_ctrls.dram.rank0.pwrStateTime::IDLE  38431804250                       # Time in different power states
system.mem_ctrls.dram.rank0.pwrStateTime::REF   2682160000                       # Time in different power states
system.mem_ctrls.dram.rank0.pwrStateTime::SREF            0                       # Time in different power states
system.mem_ctrls.dram.rank0.pwrStateTime::PRE_PDN            0                       # Time in different power states
system.mem_ctrls.dram.rank0.pwrStateTime::ACT  39211696250                       # Time in different power states
system.mem_ctrls.dram.rank0.pwrStateTime::ACT_PDN            0                       # Time in different power states
system.mem_ctrls.dram.rank1.actEnergy       232228500                       # Energy for activate commands per rank (pJ)
system.mem_ctrls.dram.rank1.preEnergy       123432375                       # Energy for precharge commands per rank (pJ)
system.mem_ctrls.dram.rank1.readEnergy      640115280                       # Energy for read commands per rank (pJ)
system.mem_ctrls.dram.rank1.writeEnergy     176404680                       # Energy for write commands per rank (pJ)
system.mem_ctrls.dram.rank1.refreshEnergy 6340626240.000001                       # Energy for refresh commands per rank (pJ)
system.mem_ctrls.dram.rank1.actBackEnergy  18497096790                       # Energy for active background per rank (pJ)
system.mem_ctrls.dram.rank1.preBackEnergy  15268551360                       # Energy for precharge background per rank (pJ)
system.mem_ctrls.dram.rank1.actPowerDownEnergy            0                       # Energy for active power-down per rank (pJ)
system.mem_ctrls.dram.rank1.prePowerDownEnergy            0                       # Energy for precharge power-down per rank (pJ)
system.mem_ctrls.dram.rank1.selfRefreshEnergy            0                       # Energy for self refresh per rank (pJ)
system.mem_ctrls.dram.rank1.totalEnergy   41278455225                       # Total energy per rank (pJ)
system.mem_ctrls.dram.rank1.averagePower   513.888774                       # Core power per rank (mW)
system.mem_ctrls.dram.rank1.totalIdleTime            0                       # Total Idle time Per DRAM Rank
system.mem_ctrls.dram.rank1.pwrStateTime::IDLE  39505790000                       # Time in different power states
system.mem_ctrls.dram.rank1.pwrStateTime::REF   2682160000                       # Time in different power states
system.mem_ctrls.dram.rank1.pwrStateTime::SREF            0                       # Time in different power states
system.mem_ctrls.dram.rank1.pwrStateTime::PRE_PDN            0                       # Time in different power states
system.mem_ctrls.dram.rank1.pwrStateTime::ACT  38137710500                       # Time in different power states
system.mem_ctrls.dram.rank1.pwrStateTime::ACT_PDN            0                       # Time in different power states
system.mem_ctrls.power_state.pwrStateResidencyTicks::UNDEFINED  80325660500                       # Cumulative time (in ticks) in various power states
system.membus.trans_dist::ReadResp              52304                       # Transaction distribution
system.membus.trans_dist::WritebackDirty        68606                       # Transaction distribution
system.membus.trans_dist::CleanEvict            45341                       # Transaction distribution
system.membus.trans_dist::ReadExReq            127637                       # Transaction distribution
system.membus.trans_dist::ReadExResp           127637                       # Transaction distribution
system.membus.trans_dist::ReadSharedReq         52304                       # Transaction distribution
system.membus.pkt_count_system.l2.mem_side_port::system.mem_ctrls.port       473829                       # Packet count per connected requestor and responder (bytes)
system.membus.pkt_count::total                 473829                       # Packet count per connected requestor and responder (bytes)
system.membus.pkt_size_system.l2.mem_side_port::system.mem_ctrls.port     15907008                       # Cumulative packet size per connected requestor and responder (bytes)
system.membus.pkt_size::total                15907008                       # Cumulative packet size per connected requestor and responder (bytes)
system.membus.snoops                                0                       # Total snoops (count)
system.membus.snoopTraffic                          0                       # Total snoop traffic (bytes)
system.membus.snoop_fanout::samples            179941                       # Request fanout histogram
system.membus.snoop_fanout::mean                    0                       # Request fanout histogram
system.membus.snoop_fanout::stdev                   0                       # Request fanout histogram
system.membus.snoop_fanout::underflows              0      0.00%      0.00% # Request fanout histogram
system.membus.snoop_fanout::0                  179941    100.00%    100.00% # Request fanout histogram
system.membus.snoop_fanout::1                       0      0.00%    100.00% # Request fanout histogram
system.membus.snoop_fanout::overflows               0      0.00%    100.00% # Request fanout histogram
system.membus.snoop_fanout::min_value               0                       # Request fanout histogram
system.membus.snoop_fanout::max_value               0                       # Request fanout histogram
system.membus.snoop_fanout::total              179941                       # Request fanout histogram
system.membus.power_state.pwrStateResidencyTicks::UNDEFINED  80325660500                       # Cumulative time (in ticks) in various power states
system.membus.reqLayer0.occupancy           601791000                       # Layer occupancy (ticks)
system.membus.reqLayer0.utilization               0.7                       # Layer utilization (%)
system.membus.respLayer1.occupancy          967388500                       # Layer occupancy (ticks)
system.membus.respLayer1.utilization              1.2                       # Layer utilization (%)
system.tol2bus.trans_dist::ReadResp            238542                       # Transaction distribution
system.tol2bus.trans_dist::WritebackDirty       474499                       # Transaction distribution
system.tol2bus.trans_dist::WritebackClean          108                       # Transaction distribution
system.tol2bus.trans_dist::CleanEvict          100069                       # Transaction distribution
system.tol2bus.trans_dist::ReadExReq           224326                       # Transaction distribution
system.tol2bus.trans_dist::ReadExResp          224326                       # Transaction distribution
system.tol2bus.trans_dist::ReadCleanReq           704                       # Transaction distribution
system.tol2bus.trans_dist::ReadSharedReq       237838                       # Transaction distribution
system.tol2bus.pkt_count_system.cpu.icache.mem_side_port::system.l2.cpu_side_port         1516                       # Packet count per connected requestor and responder (bytes)
system.tol2bus.pkt_count_system.cpu.dcache.mem_side_port::system.l2.cpu_side_port      1384444                       # Packet count per connected requestor and responder (bytes)
system.tol2bus.pkt_count::total               1385960                       # Packet count per connected requestor and responder (bytes)
system.tol2bus.pkt_size_system.cpu.icache.mem_side_port::system.l2.cpu_side_port        51968                       # Cumulative packet size per connected requestor and responder (bytes)
system.tol2bus.pkt_size_system.cpu.dcache.mem_side_port::system.l2.cpu_side_port     55555648                       # Cumulative packet size per connected requestor and responder (bytes)
system.tol2bus.pkt_size::total               55607616                       # Cumulative packet size per connected requestor and responder (bytes)
system.tol2bus.snoops                          114452                       # Total snoops (count)
system.tol2bus.snoopTraffic                   4390784                       # Total snoop traffic (bytes)
system.tol2bus.snoop_fanout::samples           577320                       # Request fanout histogram
system.tol2bus.snoop_fanout::mean            0.000984                       # Request fanout histogram
system.tol2bus.snoop_fanout::stdev           0.031351                       # Request fanout histogram
system.tol2bus.snoop_fanout::underflows             0      0.00%      0.00% # Request fanout histogram
system.tol2bus.snoop_fanout::0                 576752     99.90%     99.90% # Request fanout histogram
system.tol2bus.snoop_fanout::1                    568      0.10%    100.00% # Request fanout histogram
system.tol2bus.snoop_fanout::2                      0      0.00%    100.00% # Request fanout histogram
system.tol2bus.snoop_fanout::overflows              0      0.00%    100.00% # Request fanout histogram
system.tol2bus.snoop_fanout::min_value              0                       # Request fanout histogram
system.tol2bus.snoop_fanout::max_value              1                       # Request fanout histogram
system.tol2bus.snoop_fanout::total             577320                       # Request fanout histogram
system.tol2bus.power_state.pwrStateResidencyTicks::UNDEFINED  80325660500                       # Cumulative time (in ticks) in various power states
system.tol2bus.reqLayer0.occupancy          867547000                       # Layer occupancy (ticks)
system.tol2bus.reqLayer0.utilization              1.1                       # Layer utilization (%)
system.tol2bus.respLayer0.occupancy           1056000                       # Layer occupancy (ticks)
system.tol2bus.respLayer0.utilization             0.0                       # Layer utilization (%)
system.tol2bus.respLayer1.occupancy         693248994                       # Layer occupancy (ticks)
system.tol2bus.respLayer1.utilization             0.9                       # Layer utilization (%)
system.voltage_domain.voltage                       1                       # Voltage in Volts

---------- End Simulation Statistics   ----------
