
---------- Begin Simulation Statistics ----------
final_tick                                90988130500                       # Number of ticks from beginning of simulation (restored from checkpoints and never reset)
host_inst_rate                                 183131                       # Simulator instruction rate (inst/s)
host_mem_usage                                 653580                       # Number of bytes of host memory used
host_op_rate                                   183491                       # Simulator op (including micro ops) rate (op/s)
host_seconds                                   546.06                       # Real time elapsed on the host
host_tick_rate                              166627520                       # Simulator tick rate (ticks/s)
sim_freq                                 1000000000000                       # Frequency of simulated ticks
sim_insts                                   100000001                       # Number of instructions simulated
sim_ops                                     100196356                       # Number of ops (including micro ops) simulated
sim_seconds                                  0.090988                       # Number of seconds simulated
sim_ticks                                 90988130500                       # Number of ticks simulated
system.cpu.committedInsts                   100000001                       # Number of instructions committed
system.cpu.committedOps                     100196356                       # Number of ops (including micro ops) committed
system.cpu.cpi                               1.819763                       # CPI: cycles per instruction
system.cpu.discardedOps                        189653                       # Number of ops (including micro ops) which were discarded before commit
system.cpu.idleCycles                        48645193                       # Total number of cycles that the object has spent stopped
system.cpu.ipc                               0.549522                       # IPC: instructions per cycle
system.cpu.numCycles                        181976261                       # number of cpu cycles simulated
system.cpu.numFetchSuspends                         0                       # Number of times Execute suspended instruction fetching
system.cpu.numWorkItemsCompleted                    0                       # number of work items this cpu completed
system.cpu.numWorkItemsStarted                      0                       # number of work items this cpu started
system.cpu.op_class_0::No_OpClass                   0      0.00%      0.00% # Class of committed instruction
system.cpu.op_class_0::IntAlu                46526863     46.44%     46.44% # Class of committed instruction
system.cpu.op_class_0::IntMult                  20723      0.02%     46.46% # Class of committed instruction
system.cpu.op_class_0::IntDiv                       0      0.00%     46.46% # Class of committed instruction
system.cpu.op_class_0::FloatAdd                     0      0.00%     46.46% # Class of committed instruction
system.cpu.op_class_0::FloatCmp                     0      0.00%     46.46% # Class of committed instruction
system.cpu.op_class_0::FloatCvt                     0      0.00%     46.46% # Class of committed instruction
system.cpu.op_class_0::FloatMult                    0      0.00%     46.46% # Class of committed instruction
system.cpu.op_class_0::FloatMultAcc                 0      0.00%     46.46% # Class of committed instruction
system.cpu.op_class_0::FloatDiv                     0      0.00%     46.46% # Class of committed instruction
system.cpu.op_class_0::FloatMisc                    0      0.00%     46.46% # Class of committed instruction
system.cpu.op_class_0::FloatSqrt                    0      0.00%     46.46% # Class of committed instruction
system.cpu.op_class_0::SimdAdd                      0      0.00%     46.46% # Class of committed instruction
system.cpu.op_class_0::SimdAddAcc                   0      0.00%     46.46% # Class of committed instruction
system.cpu.op_class_0::SimdAlu                      0      0.00%     46.46% # Class of committed instruction
system.cpu.op_class_0::SimdCmp                      0      0.00%     46.46% # Class of committed instruction
system.cpu.op_class_0::SimdCvt                      0      0.00%     46.46% # Class of committed instruction
system.cpu.op_class_0::SimdMisc                     0      0.00%     46.46% # Class of committed instruction
system.cpu.op_class_0::SimdMult                     0      0.00%     46.46% # Class of committed instruction
system.cpu.op_class_0::SimdMultAcc                  0      0.00%     46.46% # Class of committed instruction
system.cpu.op_class_0::SimdShift                    0      0.00%     46.46% # Class of committed instruction
system.cpu.op_class_0::SimdShiftAcc                 0      0.00%     46.46% # Class of committed instruction
system.cpu.op_class_0::SimdDiv                      0      0.00%     46.46% # Class of committed instruction
system.cpu.op_class_0::SimdSqrt                     0      0.00%     46.46% # Class of committed instruction
system.cpu.op_class_0::SimdFloatAdd                 0      0.00%     46.46% # Class of committed instruction
system.cpu.op_class_0::SimdFloatAlu                 0      0.00%     46.46% # Class of committed instruction
system.cpu.op_class_0::SimdFloatCmp                 0      0.00%     46.46% # Class of committed instruction
system.cpu.op_class_0::SimdFloatCvt                 0      0.00%     46.46% # Class of committed instruction
system.cpu.op_class_0::SimdFloatDiv                 0      0.00%     46.46% # Class of committed instruction
system.cpu.op_class_0::SimdFloatMisc               18      0.00%     46.46% # Class of committed instruction
system.cpu.op_class_0::SimdFloatMult                0      0.00%     46.46% # Class of committed instruction
system.cpu.op_class_0::SimdFloatMultAcc             0      0.00%     46.46% # Class of committed instruction
system.cpu.op_class_0::SimdFloatSqrt                0      0.00%     46.46% # Class of committed instruction
system.cpu.op_class_0::SimdReduceAdd                0      0.00%     46.46% # Class of committed instruction
system.cpu.op_class_0::SimdReduceAlu                0      0.00%     46.46% # Class of committed instruction
system.cpu.op_class_0::SimdReduceCmp                0      0.00%     46.46% # Class of committed instruction
system.cpu.op_class_0::SimdFloatReduceAdd            0      0.00%     46.46% # Class of committed instruction
system.cpu.op_class_0::SimdFloatReduceCmp            0      0.00%     46.46% # Class of committed instruction
system.cpu.op_class_0::SimdAes                      0      0.00%     46.46% # Class of committed instruction
system.cpu.op_class_0::SimdAesMix                   0      0.00%     46.46% # Class of committed instruction
system.cpu.op_class_0::SimdSha1Hash                 0      0.00%     46.46% # Class of committed instruction
system.cpu.op_class_0::SimdSha1Hash2                0      0.00%     46.46% # Class of committed instruction
system.cpu.op_class_0::SimdSha256Hash               0      0.00%     46.46% # Class of committed instruction
system.cpu.op_class_0::SimdSha256Hash2              0      0.00%     46.46% # Class of committed instruction
system.cpu.op_class_0::SimdShaSigma2                0      0.00%     46.46% # Class of committed instruction
system.cpu.op_class_0::SimdShaSigma3                0      0.00%     46.46% # Class of committed instruction
system.cpu.op_class_0::SimdPredAlu                  0      0.00%     46.46% # Class of committed instruction
system.cpu.op_class_0::MemRead               42690537     42.61%     89.06% # Class of committed instruction
system.cpu.op_class_0::MemWrite              10958215     10.94%    100.00% # Class of committed instruction
system.cpu.op_class_0::FloatMemRead                 0      0.00%    100.00% # Class of committed instruction
system.cpu.op_class_0::FloatMemWrite                0      0.00%    100.00% # Class of committed instruction
system.cpu.op_class_0::IprAccess                    0      0.00%    100.00% # Class of committed instruction
system.cpu.op_class_0::InstPrefetch                 0      0.00%    100.00% # Class of committed instruction
system.cpu.op_class_0::total                100196356                       # Class of committed instruction
system.cpu.tickCycles                       133331068                       # Number of cycles that the object actually ticked
system.cpu.workload.numSyscalls                    85                       # Number of system calls
system.membus.snoop_filter.hit_multi_requests            0                       # Number of requests hitting in the snoop filter with multiple (>1) holders of the requested data.
system.membus.snoop_filter.hit_multi_snoops            0                       # Number of snoops hitting in the snoop filter with multiple (>1) holders of the requested data.
system.membus.snoop_filter.hit_single_requests       278941                       # Number of requests hitting in the snoop filter with a single holder of the requested data.
system.membus.snoop_filter.hit_single_snoops            0                       # Number of snoops hitting in the snoop filter with a single holder of the requested data.
system.membus.snoop_filter.tot_requests        566428                       # Total number of requests made to the snoop filter.
system.membus.snoop_filter.tot_snoops               0                       # Total number of snoops made to the snoop filter.
system.tol2bus.snoop_filter.hit_multi_requests         1296                       # Number of requests hitting in the snoop filter with multiple (>1) holders of the requested data.
system.tol2bus.snoop_filter.hit_multi_snoops           15                       # Number of snoops hitting in the snoop filter with multiple (>1) holders of the requested data.
system.tol2bus.snoop_filter.hit_single_requests       987354                       # Number of requests hitting in the snoop filter with a single holder of the requested data.
system.tol2bus.snoop_filter.hit_single_snoops         3592                       # Number of snoops hitting in the snoop filter with a single holder of the requested data.
system.tol2bus.snoop_filter.tot_requests      1975599                       # Total number of requests made to the snoop filter.
system.tol2bus.snoop_filter.tot_snoops           3607                       # Total number of snoops made to the snoop filter.
system.clk_domain.clock                          1000                       # Clock period in ticks
system.cpu.branchPred.lookups                 4485862                       # Number of BP lookups
system.cpu.branchPred.condPredicted           3735507                       # Number of conditional branches predicted
system.cpu.branchPred.condIncorrect             81008                       # Number of conditional branches incorrect
system.cpu.branchPred.BTBLookups              2103875                       # Number of BTB lookups
system.cpu.branchPred.BTBHits                 2101876                       # Number of BTB hits
system.cpu.branchPred.BTBHitPct             99.904985                       # BTB Hit Percentage
system.cpu.branchPred.RASUsed                   65388                       # Number of times the RAS was used to get a target.
system.cpu.branchPred.RASIncorrect                 14                       # Number of incorrect RAS predictions.
system.cpu.branchPred.indirectLookups             697                       # Number of indirect predictor lookups.
system.cpu.branchPred.indirectHits                289                       # Number of indirect target hits.
system.cpu.branchPred.indirectMisses              408                       # Number of indirect misses.
system.cpu.branchPred.indirectMispredicted          171                       # Number of mispredicted indirect branches.
system.cpu.dcache.demand_hits::.cpu.data     51034943                       # number of demand (read+write) hits
system.cpu.dcache.demand_hits::total         51034943                       # number of demand (read+write) hits
system.cpu.dcache.overall_hits::.cpu.data     51035367                       # number of overall hits
system.cpu.dcache.overall_hits::total        51035367                       # number of overall hits
system.cpu.dcache.demand_misses::.cpu.data      1047215                       # number of demand (read+write) misses
system.cpu.dcache.demand_misses::total        1047215                       # number of demand (read+write) misses
system.cpu.dcache.overall_misses::.cpu.data      1055210                       # number of overall misses
system.cpu.dcache.overall_misses::total       1055210                       # number of overall misses
system.cpu.dcache.demand_miss_latency::.cpu.data  36259681998                       # number of demand (read+write) miss cycles
system.cpu.dcache.demand_miss_latency::total  36259681998                       # number of demand (read+write) miss cycles
system.cpu.dcache.overall_miss_latency::.cpu.data  36259681998                       # number of overall miss cycles
system.cpu.dcache.overall_miss_latency::total  36259681998                       # number of overall miss cycles
system.cpu.dcache.demand_accesses::.cpu.data     52082158                       # number of demand (read+write) accesses
system.cpu.dcache.demand_accesses::total     52082158                       # number of demand (read+write) accesses
system.cpu.dcache.overall_accesses::.cpu.data     52090577                       # number of overall (read+write) accesses
system.cpu.dcache.overall_accesses::total     52090577                       # number of overall (read+write) accesses
system.cpu.dcache.demand_miss_rate::.cpu.data     0.020107                       # miss rate for demand accesses
system.cpu.dcache.demand_miss_rate::total     0.020107                       # miss rate for demand accesses
system.cpu.dcache.overall_miss_rate::.cpu.data     0.020257                       # miss rate for overall accesses
system.cpu.dcache.overall_miss_rate::total     0.020257                       # miss rate for overall accesses
system.cpu.dcache.demand_avg_miss_latency::.cpu.data 34624.868817                       # average overall miss latency
system.cpu.dcache.demand_avg_miss_latency::total 34624.868817                       # average overall miss latency
system.cpu.dcache.overall_avg_miss_latency::.cpu.data 34362.526888                       # average overall miss latency
system.cpu.dcache.overall_avg_miss_latency::total 34362.526888                       # average overall miss latency
system.cpu.dcache.blocked_cycles::no_mshrs       216897                       # number of cycles access was blocked
system.cpu.dcache.blocked_cycles::no_targets            0                       # number of cycles access was blocked
system.cpu.dcache.blocked::no_mshrs              4340                       # number of cycles access was blocked
system.cpu.dcache.blocked::no_targets               0                       # number of cycles access was blocked
system.cpu.dcache.avg_blocked_cycles::no_mshrs    49.976267                       # average number of cycles each access was blocked
system.cpu.dcache.avg_blocked_cycles::no_targets          nan                       # average number of cycles each access was blocked
system.cpu.dcache.writebacks::.writebacks       877922                       # number of writebacks
system.cpu.dcache.writebacks::total            877922                       # number of writebacks
system.cpu.dcache.demand_mshr_hits::.cpu.data        67845                       # number of demand (read+write) MSHR hits
system.cpu.dcache.demand_mshr_hits::total        67845                       # number of demand (read+write) MSHR hits
system.cpu.dcache.overall_mshr_hits::.cpu.data        67845                       # number of overall MSHR hits
system.cpu.dcache.overall_mshr_hits::total        67845                       # number of overall MSHR hits
system.cpu.dcache.demand_mshr_misses::.cpu.data       979370                       # number of demand (read+write) MSHR misses
system.cpu.dcache.demand_mshr_misses::total       979370                       # number of demand (read+write) MSHR misses
system.cpu.dcache.overall_mshr_misses::.cpu.data       987361                       # number of overall MSHR misses
system.cpu.dcache.overall_mshr_misses::total       987361                       # number of overall MSHR misses
system.cpu.dcache.demand_mshr_miss_latency::.cpu.data  33559165500                       # number of demand (read+write) MSHR miss cycles
system.cpu.dcache.demand_mshr_miss_latency::total  33559165500                       # number of demand (read+write) MSHR miss cycles
system.cpu.dcache.overall_mshr_miss_latency::.cpu.data  34204406499                       # number of overall MSHR miss cycles
system.cpu.dcache.overall_mshr_miss_latency::total  34204406499                       # number of overall MSHR miss cycles
system.cpu.dcache.demand_mshr_miss_rate::.cpu.data     0.018804                       # mshr miss rate for demand accesses
system.cpu.dcache.demand_mshr_miss_rate::total     0.018804                       # mshr miss rate for demand accesses
system.cpu.dcache.overall_mshr_miss_rate::.cpu.data     0.018955                       # mshr miss rate for overall accesses
system.cpu.dcache.overall_mshr_miss_rate::total     0.018955                       # mshr miss rate for overall accesses
system.cpu.dcache.demand_avg_mshr_miss_latency::.cpu.data 34266.074619                       # average overall mshr miss latency
system.cpu.dcache.demand_avg_mshr_miss_latency::total 34266.074619                       # average overall mshr miss latency
system.cpu.dcache.overall_avg_mshr_miss_latency::.cpu.data 34642.249895                       # average overall mshr miss latency
system.cpu.dcache.overall_avg_mshr_miss_latency::total 34642.249895                       # average overall mshr miss latency
system.cpu.dcache.replacements                 986849                       # number of replacements
system.cpu.dcache.ReadReq_hits::.cpu.data     40534451                       # number of ReadReq hits
system.cpu.dcache.ReadReq_hits::total        40534451                       # number of ReadReq hits
system.cpu.dcache.ReadReq_misses::.cpu.data       598625                       # number of ReadReq misses
system.cpu.dcache.ReadReq_misses::total        598625                       # number of ReadReq misses
system.cpu.dcache.ReadReq_miss_latency::.cpu.data  15473347500                       # number of ReadReq miss cycles
system.cpu.dcache.ReadReq_miss_latency::total  15473347500                       # number of ReadReq miss cycles
system.cpu.dcache.ReadReq_accesses::.cpu.data     41133076                       # number of ReadReq accesses(hits+misses)
system.cpu.dcache.ReadReq_accesses::total     41133076                       # number of ReadReq accesses(hits+misses)
system.cpu.dcache.ReadReq_miss_rate::.cpu.data     0.014553                       # miss rate for ReadReq accesses
system.cpu.dcache.ReadReq_miss_rate::total     0.014553                       # miss rate for ReadReq accesses
system.cpu.dcache.ReadReq_avg_miss_latency::.cpu.data 25848.147839                       # average ReadReq miss latency
system.cpu.dcache.ReadReq_avg_miss_latency::total 25848.147839                       # average ReadReq miss latency
system.cpu.dcache.ReadReq_mshr_hits::.cpu.data         3169                       # number of ReadReq MSHR hits
system.cpu.dcache.ReadReq_mshr_hits::total         3169                       # number of ReadReq MSHR hits
system.cpu.dcache.ReadReq_mshr_misses::.cpu.data       595456                       # number of ReadReq MSHR misses
system.cpu.dcache.ReadReq_mshr_misses::total       595456                       # number of ReadReq MSHR misses
system.cpu.dcache.ReadReq_mshr_miss_latency::.cpu.data  14805043000                       # number of ReadReq MSHR miss cycles
system.cpu.dcache.ReadReq_mshr_miss_latency::total  14805043000                       # number of ReadReq MSHR miss cycles
system.cpu.dcache.ReadReq_mshr_miss_rate::.cpu.data     0.014476                       # mshr miss rate for ReadReq accesses
system.cpu.dcache.ReadReq_mshr_miss_rate::total     0.014476                       # mshr miss rate for ReadReq accesses
system.cpu.dcache.ReadReq_avg_mshr_miss_latency::.cpu.data 24863.370257                       # average ReadReq mshr miss latency
system.cpu.dcache.ReadReq_avg_mshr_miss_latency::total 24863.370257                       # average ReadReq mshr miss latency
system.cpu.dcache.WriteReq_hits::.cpu.data     10500492                       # number of WriteReq hits
system.cpu.dcache.WriteReq_hits::total       10500492                       # number of WriteReq hits
system.cpu.dcache.WriteReq_misses::.cpu.data       448590                       # number of WriteReq misses
system.cpu.dcache.WriteReq_misses::total       448590                       # number of WriteReq misses
system.cpu.dcache.WriteReq_miss_latency::.cpu.data  20786334498                       # number of WriteReq miss cycles
system.cpu.dcache.WriteReq_miss_latency::total  20786334498                       # number of WriteReq miss cycles
system.cpu.dcache.WriteReq_accesses::.cpu.data     10949082                       # number of WriteReq accesses(hits+misses)
system.cpu.dcache.WriteReq_accesses::total     10949082                       # number of WriteReq accesses(hits+misses)
system.cpu.dcache.WriteReq_miss_rate::.cpu.data     0.040971                       # miss rate for WriteReq accesses
system.cpu.dcache.WriteReq_miss_rate::total     0.040971                       # miss rate for WriteReq accesses
system.cpu.dcache.WriteReq_avg_miss_latency::.cpu.data 46337.043844                       # average WriteReq miss latency
system.cpu.dcache.WriteReq_avg_miss_latency::total 46337.043844                       # average WriteReq miss latency
system.cpu.dcache.WriteReq_mshr_hits::.cpu.data        64676                       # number of WriteReq MSHR hits
system.cpu.dcache.WriteReq_mshr_hits::total        64676                       # number of WriteReq MSHR hits
system.cpu.dcache.WriteReq_mshr_misses::.cpu.data       383914                       # number of WriteReq MSHR misses
system.cpu.dcache.WriteReq_mshr_misses::total       383914                       # number of WriteReq MSHR misses
system.cpu.dcache.WriteReq_mshr_miss_latency::.cpu.data  18754122500                       # number of WriteReq MSHR miss cycles
system.cpu.dcache.WriteReq_mshr_miss_latency::total  18754122500                       # number of WriteReq MSHR miss cycles
system.cpu.dcache.WriteReq_mshr_miss_rate::.cpu.data     0.035064                       # mshr miss rate for WriteReq accesses
system.cpu.dcache.WriteReq_mshr_miss_rate::total     0.035064                       # mshr miss rate for WriteReq accesses
system.cpu.dcache.WriteReq_avg_mshr_miss_latency::.cpu.data 48849.800997                       # average WriteReq mshr miss latency
system.cpu.dcache.WriteReq_avg_mshr_miss_latency::total 48849.800997                       # average WriteReq mshr miss latency
system.cpu.dcache.SoftPFReq_hits::.cpu.data          424                       # number of SoftPFReq hits
system.cpu.dcache.SoftPFReq_hits::total           424                       # number of SoftPFReq hits
system.cpu.dcache.SoftPFReq_misses::.cpu.data         7995                       # number of SoftPFReq misses
system.cpu.dcache.SoftPFReq_misses::total         7995                       # number of SoftPFReq misses
system.cpu.dcache.SoftPFReq_accesses::.cpu.data         8419                       # number of SoftPFReq accesses(hits+misses)
system.cpu.dcache.SoftPFReq_accesses::total         8419                       # number of SoftPFReq accesses(hits+misses)
system.cpu.dcache.SoftPFReq_miss_rate::.cpu.data     0.949638                       # miss rate for SoftPFReq accesses
system.cpu.dcache.SoftPFReq_miss_rate::total     0.949638                       # miss rate for SoftPFReq accesses
system.cpu.dcache.SoftPFReq_mshr_misses::.cpu.data         7991                       # number of SoftPFReq MSHR misses
system.cpu.dcache.SoftPFReq_mshr_misses::total         7991                       # number of SoftPFReq MSHR misses
system.cpu.dcache.SoftPFReq_mshr_miss_latency::.cpu.data    645240999                       # number of SoftPFReq MSHR miss cycles
system.cpu.dcache.SoftPFReq_mshr_miss_latency::total    645240999                       # number of SoftPFReq MSHR miss cycles
system.cpu.dcache.SoftPFReq_mshr_miss_rate::.cpu.data     0.949163                       # mshr miss rate for SoftPFReq accesses
system.cpu.dcache.SoftPFReq_mshr_miss_rate::total     0.949163                       # mshr miss rate for SoftPFReq accesses
system.cpu.dcache.SoftPFReq_avg_mshr_miss_latency::.cpu.data 80745.964085                       # average SoftPFReq mshr miss latency
system.cpu.dcache.SoftPFReq_avg_mshr_miss_latency::total 80745.964085                       # average SoftPFReq mshr miss latency
system.cpu.dcache.LoadLockedReq_hits::.cpu.data           38                       # number of LoadLockedReq hits
system.cpu.dcache.LoadLockedReq_hits::total           38                       # number of LoadLockedReq hits
system.cpu.dcache.LoadLockedReq_accesses::.cpu.data           38                       # number of LoadLockedReq accesses(hits+misses)
system.cpu.dcache.LoadLockedReq_accesses::total           38                       # number of LoadLockedReq accesses(hits+misses)
system.cpu.dcache.StoreCondReq_hits::.cpu.data           38                       # number of StoreCondReq hits
system.cpu.dcache.StoreCondReq_hits::total           38                       # number of StoreCondReq hits
system.cpu.dcache.StoreCondReq_accesses::.cpu.data           38                       # number of StoreCondReq accesses(hits+misses)
system.cpu.dcache.StoreCondReq_accesses::total           38                       # number of StoreCondReq accesses(hits+misses)
system.cpu.dcache.power_state.pwrStateResidencyTicks::UNDEFINED  90988130500                       # Cumulative time (in ticks) in various power states
system.cpu.dcache.tags.tagsinuse           505.625216                       # Cycle average of tags in use
system.cpu.dcache.tags.total_refs            52022804                       # Total number of references to valid blocks.
system.cpu.dcache.tags.sampled_refs            987361                       # Sample count of references to valid blocks.
system.cpu.dcache.tags.avg_refs             52.688737                       # Average number of references to valid blocks.
system.cpu.dcache.tags.warmup_cycle            176500                       # Cycle when the warmup percentage was hit.
system.cpu.dcache.tags.occ_blocks::.cpu.data   505.625216                       # Average occupied blocks per requestor
system.cpu.dcache.tags.occ_percent::.cpu.data     0.987549                       # Average percentage of cache occupancy
system.cpu.dcache.tags.occ_percent::total     0.987549                       # Average percentage of cache occupancy
system.cpu.dcache.tags.occ_task_id_blocks::1024          512                       # Occupied blocks per task id
system.cpu.dcache.tags.age_task_id_blocks_1024::0           69                       # Occupied blocks per task id
system.cpu.dcache.tags.age_task_id_blocks_1024::1          217                       # Occupied blocks per task id
system.cpu.dcache.tags.age_task_id_blocks_1024::2          226                       # Occupied blocks per task id
system.cpu.dcache.tags.occ_task_id_percent::1024            1                       # Percentage of cache occupancy per task id
system.cpu.dcache.tags.tag_accesses          53078014                       # Number of tag accesses
system.cpu.dcache.tags.data_accesses         53078014                       # Number of data accesses
system.cpu.dcache.tags.power_state.pwrStateResidencyTicks::UNDEFINED  90988130500                       # Cumulative time (in ticks) in various power states
system.cpu.dtb.instHits                             0                       # ITB inst hits
system.cpu.dtb.instMisses                           0                       # ITB inst misses
system.cpu.dtb.readHits                             0                       # DTB read hits
system.cpu.dtb.readMisses                           0                       # DTB read misses
system.cpu.dtb.writeHits                            0                       # DTB write hits
system.cpu.dtb.writeMisses                          0                       # DTB write misses
system.cpu.dtb.inserts                              0                       # Number of times an entry is inserted into the TLB
system.cpu.dtb.flushTlb                             0                       # Number of times complete TLB was flushed
system.cpu.dtb.flushTlbMva                          0                       # Number of times TLB was flushed by MVA
system.cpu.dtb.flushTlbMvaAsid                      0                       # Number of times TLB was flushed by MVA & ASID
system.cpu.dtb.flushTlbAsid                         0                       # Number of times TLB was flushed by ASID
system.cpu.dtb.flushedEntries                       0                       # Number of entries that have been flushed from TLB
system.cpu.dtb.alignFaults                          0                       # Number of TLB faults due to alignment restrictions
system.cpu.dtb.prefetchFaults                       0                       # Number of TLB faults due to prefetch
system.cpu.dtb.domainFaults                         0                       # Number of TLB faults due to domain restrictions
system.cpu.dtb.permsFaults                          0                       # Number of TLB faults due to permissions restrictions
system.cpu.dtb.readAccesses                         0                       # DTB read accesses
system.cpu.dtb.writeAccesses                        0                       # DTB write accesses
system.cpu.dtb.instAccesses                         0                       # ITB inst accesses
system.cpu.dtb.hits                                 0                       # Total TLB (inst and data) hits
system.cpu.dtb.misses                               0                       # Total TLB (inst and data) misses
system.cpu.dtb.accesses                             0                       # Total TLB (inst and data) accesses
system.cpu.dtb.stage2_mmu.stage2_tlb.instHits            0                       # ITB inst hits
system.cpu.dtb.stage2_mmu.stage2_tlb.instMisses            0                       # ITB inst misses
system.cpu.dtb.stage2_mmu.stage2_tlb.readHits            0                       # DTB read hits
system.cpu.dtb.stage2_mmu.stage2_tlb.readMisses            0                       # DTB read misses
system.cpu.dtb.stage2_mmu.stage2_tlb.writeHits            0                       # DTB write hits
system.cpu.dtb.stage2_mmu.stage2_tlb.writeMisses            0                       # DTB write misses
system.cpu.dtb.stage2_mmu.stage2_tlb.inserts            0                       # Number of times an entry is inserted into the TLB
system.cpu.dtb.stage2_mmu.stage2_tlb.flushTlb            0                       # Number of times complete TLB was flushed
system.cpu.dtb.stage2_mmu.stage2_tlb.flushTlbMva            0                       # Number of times TLB was flushed by MVA
system.cpu.dtb.stage2_mmu.stage2_tlb.flushTlbMvaAsid            0                       # Number of times TLB was flushed by MVA & ASID
system.cpu.dtb.stage2_mmu.stage2_tlb.flushTlbAsid            0                       # Number of times TLB was flushed by ASID
system.cpu.dtb.stage2_mmu.stage2_tlb.flushedEntries            0                       # Number of entries that have been flushed from TLB
system.cpu.dtb.stage2_mmu.stage2_tlb.alignFaults            0                       # Number of TLB faults due to alignment restrictions
system.cpu.dtb.stage2_mmu.stage2_tlb.prefetchFaults            0                       # Number of TLB faults due to prefetch
system.cpu.dtb.stage2_mmu.stage2_tlb.domainFaults            0                       # Number of TLB faults due to domain restrictions
system.cpu.dtb.stage2_mmu.stage2_tlb.permsFaults            0                       # Number of TLB faults due to permissions restrictions
system.cpu.dtb.stage2_mmu.stage2_tlb.readAccesses            0                       # DTB read accesses
system.cpu.dtb.stage2_mmu.stage2_tlb.writeAccesses            0                       # DTB write accesses
system.cpu.dtb.stage2_mmu.stage2_tlb.instAccesses            0                       # ITB inst accesses
system.cpu.dtb.stage2_mmu.stage2_tlb.hits            0                       # Total TLB (inst and data) hits
system.cpu.dtb.stage2_mmu.stage2_tlb.misses            0                       # Total TLB (inst and data) misses
system.cpu.dtb.stage2_mmu.stage2_tlb.accesses            0                       # Total TLB (inst and data) accesses
system.cpu.dtb.stage2_mmu.stage2_tlb.walker.walks            0                       # Table walker walks requested
system.cpu.dtb.stage2_mmu.stage2_tlb.walker.requestOrigin_Requested::Data            0                       # Table walker requests started/completed, data/inst
system.cpu.dtb.stage2_mmu.stage2_tlb.walker.requestOrigin_Requested::Inst            0                       # Table walker requests started/completed, data/inst
system.cpu.dtb.stage2_mmu.stage2_tlb.walker.requestOrigin_Requested::total            0                       # Table walker requests started/completed, data/inst
system.cpu.dtb.stage2_mmu.stage2_tlb.walker.requestOrigin_Completed::Data            0                       # Table walker requests started/completed, data/inst
system.cpu.dtb.stage2_mmu.stage2_tlb.walker.requestOrigin_Completed::Inst            0                       # Table walker requests started/completed, data/inst
system.cpu.dtb.stage2_mmu.stage2_tlb.walker.requestOrigin_Completed::total            0                       # Table walker requests started/completed, data/inst
system.cpu.dtb.stage2_mmu.stage2_tlb.walker.requestOrigin::total            0                       # Table walker requests started/completed, data/inst
system.cpu.dtb.stage2_mmu.stage2_tlb.walker.power_state.pwrStateResidencyTicks::UNDEFINED  90988130500                       # Cumulative time (in ticks) in various power states
system.cpu.dtb.walker.walks                         0                       # Table walker walks requested
system.cpu.dtb.walker.requestOrigin_Requested::Data            0                       # Table walker requests started/completed, data/inst
system.cpu.dtb.walker.requestOrigin_Requested::Inst            0                       # Table walker requests started/completed, data/inst
system.cpu.dtb.walker.requestOrigin_Requested::total            0                       # Table walker requests started/completed, data/inst
system.cpu.dtb.walker.requestOrigin_Completed::Data            0                       # Table walker requests started/completed, data/inst
system.cpu.dtb.walker.requestOrigin_Completed::Inst            0                       # Table walker requests started/completed, data/inst
system.cpu.dtb.walker.requestOrigin_Completed::total            0                       # Table walker requests started/completed, data/inst
system.cpu.dtb.walker.requestOrigin::total            0                       # Table walker requests started/completed, data/inst
system.cpu.dtb.walker.power_state.pwrStateResidencyTicks::UNDEFINED  90988130500                       # Cumulative time (in ticks) in various power states
system.cpu.fetch2.intInstructions            42686354                       # Number of integer instructions successfully decoded
system.cpu.fetch2.fpInstructions                    0                       # Number of floating point instructions successfully decoded
system.cpu.fetch2.vecInstructions                   0                       # Number of SIMD instructions successfully decoded
system.cpu.fetch2.loadInstructions           43475502                       # Number of memory load instructions successfully decoded
system.cpu.fetch2.storeInstructions          11025092                       # Number of memory store instructions successfully decoded
system.cpu.fetch2.amoInstructions                   0                       # Number of memory atomic instructions successfully decoded
system.cpu.icache.demand_hits::.cpu.inst     10278496                       # number of demand (read+write) hits
system.cpu.icache.demand_hits::total         10278496                       # number of demand (read+write) hits
system.cpu.icache.overall_hits::.cpu.inst     10278496                       # number of overall hits
system.cpu.icache.overall_hits::total        10278496                       # number of overall hits
system.cpu.icache.demand_misses::.cpu.inst          885                       # number of demand (read+write) misses
system.cpu.icache.demand_misses::total            885                       # number of demand (read+write) misses
system.cpu.icache.overall_misses::.cpu.inst          885                       # number of overall misses
system.cpu.icache.overall_misses::total           885                       # number of overall misses
system.cpu.icache.demand_miss_latency::.cpu.inst     57876500                       # number of demand (read+write) miss cycles
system.cpu.icache.demand_miss_latency::total     57876500                       # number of demand (read+write) miss cycles
system.cpu.icache.overall_miss_latency::.cpu.inst     57876500                       # number of overall miss cycles
system.cpu.icache.overall_miss_latency::total     57876500                       # number of overall miss cycles
system.cpu.icache.demand_accesses::.cpu.inst     10279381                       # number of demand (read+write) accesses
system.cpu.icache.demand_accesses::total     10279381                       # number of demand (read+write) accesses
system.cpu.icache.overall_accesses::.cpu.inst     10279381                       # number of overall (read+write) accesses
system.cpu.icache.overall_accesses::total     10279381                       # number of overall (read+write) accesses
system.cpu.icache.demand_miss_rate::.cpu.inst     0.000086                       # miss rate for demand accesses
system.cpu.icache.demand_miss_rate::total     0.000086                       # miss rate for demand accesses
system.cpu.icache.overall_miss_rate::.cpu.inst     0.000086                       # miss rate for overall accesses
system.cpu.icache.overall_miss_rate::total     0.000086                       # miss rate for overall accesses
system.cpu.icache.demand_avg_miss_latency::.cpu.inst 65397.175141                       # average overall miss latency
system.cpu.icache.demand_avg_miss_latency::total 65397.175141                       # average overall miss latency
system.cpu.icache.overall_avg_miss_latency::.cpu.inst 65397.175141                       # average overall miss latency
system.cpu.icache.overall_avg_miss_latency::total 65397.175141                       # average overall miss latency
system.cpu.icache.blocked_cycles::no_mshrs            0                       # number of cycles access was blocked
system.cpu.icache.blocked_cycles::no_targets            0                       # number of cycles access was blocked
system.cpu.icache.blocked::no_mshrs                 0                       # number of cycles access was blocked
system.cpu.icache.blocked::no_targets               0                       # number of cycles access was blocked
system.cpu.icache.avg_blocked_cycles::no_mshrs          nan                       # average number of cycles each access was blocked
system.cpu.icache.avg_blocked_cycles::no_targets          nan                       # average number of cycles each access was blocked
system.cpu.icache.writebacks::.writebacks          504                       # number of writebacks
system.cpu.icache.writebacks::total               504                       # number of writebacks
system.cpu.icache.demand_mshr_misses::.cpu.inst          885                       # number of demand (read+write) MSHR misses
system.cpu.icache.demand_mshr_misses::total          885                       # number of demand (read+write) MSHR misses
system.cpu.icache.overall_mshr_misses::.cpu.inst          885                       # number of overall MSHR misses
system.cpu.icache.overall_mshr_misses::total          885                       # number of overall MSHR misses
system.cpu.icache.demand_mshr_miss_latency::.cpu.inst     56991500                       # number of demand (read+write) MSHR miss cycles
system.cpu.icache.demand_mshr_miss_latency::total     56991500                       # number of demand (read+write) MSHR miss cycles
system.cpu.icache.overall_mshr_miss_latency::.cpu.inst     56991500                       # number of overall MSHR miss cycles
system.cpu.icache.overall_mshr_miss_latency::total     56991500                       # number of overall MSHR miss cycles
system.cpu.icache.demand_mshr_miss_rate::.cpu.inst     0.000086                       # mshr miss rate for demand accesses
system.cpu.icache.demand_mshr_miss_rate::total     0.000086                       # mshr miss rate for demand accesses
system.cpu.icache.overall_mshr_miss_rate::.cpu.inst     0.000086                       # mshr miss rate for overall accesses
system.cpu.icache.overall_mshr_miss_rate::total     0.000086                       # mshr miss rate for overall accesses
system.cpu.icache.demand_avg_mshr_miss_latency::.cpu.inst 64397.175141                       # average overall mshr miss latency
system.cpu.icache.demand_avg_mshr_miss_latency::total 64397.175141                       # average overall mshr miss latency
system.cpu.icache.overall_avg_mshr_miss_latency::.cpu.inst 64397.175141                       # average overall mshr miss latency
system.cpu.icache.overall_avg_mshr_miss_latency::total 64397.175141                       # average overall mshr miss latency
system.cpu.icache.replacements                    504                       # number of replacements
system.cpu.icache.ReadReq_hits::.cpu.inst     10278496                       # number of ReadReq hits
system.cpu.icache.ReadReq_hits::total        10278496                       # number of ReadReq hits
system.cpu.icache.ReadReq_misses::.cpu.inst          885                       # number of ReadReq misses
system.cpu.icache.ReadReq_misses::total           885                       # number of ReadReq misses
system.cpu.icache.ReadReq_miss_latency::.cpu.inst     57876500                       # number of ReadReq miss cycles
system.cpu.icache.ReadReq_miss_latency::total     57876500                       # number of ReadReq miss cycles
system.cpu.icache.ReadReq_accesses::.cpu.inst     10279381                       # number of ReadReq accesses(hits+misses)
system.cpu.icache.ReadReq_accesses::total     10279381                       # number of ReadReq accesses(hits+misses)
system.cpu.icache.ReadReq_miss_rate::.cpu.inst     0.000086                       # miss rate for ReadReq accesses
system.cpu.icache.ReadReq_miss_rate::total     0.000086                       # miss rate for ReadReq accesses
system.cpu.icache.ReadReq_avg_miss_latency::.cpu.inst 65397.175141                       # average ReadReq miss latency
system.cpu.icache.ReadReq_avg_miss_latency::total 65397.175141                       # average ReadReq miss latency
system.cpu.icache.ReadReq_mshr_misses::.cpu.inst          885                       # number of ReadReq MSHR misses
system.cpu.icache.ReadReq_mshr_misses::total          885                       # number of ReadReq MSHR misses
system.cpu.icache.ReadReq_mshr_miss_latency::.cpu.inst     56991500                       # number of ReadReq MSHR miss cycles
system.cpu.icache.ReadReq_mshr_miss_latency::total     56991500                       # number of ReadReq MSHR miss cycles
system.cpu.icache.ReadReq_mshr_miss_rate::.cpu.inst     0.000086                       # mshr miss rate for ReadReq accesses
system.cpu.icache.ReadReq_mshr_miss_rate::total     0.000086                       # mshr miss rate for ReadReq accesses
system.cpu.icache.ReadReq_avg_mshr_miss_latency::.cpu.inst 64397.175141                       # average ReadReq mshr miss latency
system.cpu.icache.ReadReq_avg_mshr_miss_latency::total 64397.175141                       # average ReadReq mshr miss latency
system.cpu.icache.power_state.pwrStateResidencyTicks::UNDEFINED  90988130500                       # Cumulative time (in ticks) in various power states
system.cpu.icache.tags.tagsinuse           300.706486                       # Cycle average of tags in use
system.cpu.icache.tags.total_refs            10279381                       # Total number of references to valid blocks.
system.cpu.icache.tags.sampled_refs               885                       # Sample count of references to valid blocks.
system.cpu.icache.tags.avg_refs          11615.119774                       # Average number of references to valid blocks.
system.cpu.icache.tags.warmup_cycle             87500                       # Cycle when the warmup percentage was hit.
system.cpu.icache.tags.occ_blocks::.cpu.inst   300.706486                       # Average occupied blocks per requestor
system.cpu.icache.tags.occ_percent::.cpu.inst     0.587317                       # Average percentage of cache occupancy
system.cpu.icache.tags.occ_percent::total     0.587317                       # Average percentage of cache occupancy
system.cpu.icache.tags.occ_task_id_blocks::1024          381                       # Occupied blocks per task id
system.cpu.icache.tags.age_task_id_blocks_1024::3          107                       # Occupied blocks per task id
system.cpu.icache.tags.age_task_id_blocks_1024::4          274                       # Occupied blocks per task id
system.cpu.icache.tags.occ_task_id_percent::1024     0.744141                       # Percentage of cache occupancy per task id
system.cpu.icache.tags.tag_accesses          10280266                       # Number of tag accesses
system.cpu.icache.tags.data_accesses         10280266                       # Number of data accesses
system.cpu.icache.tags.power_state.pwrStateResidencyTicks::UNDEFINED  90988130500                       # Cumulative time (in ticks) in various power states
system.cpu.itb.instHits                             0                       # ITB inst hits
system.cpu.itb.instMisses                           0                       # ITB inst misses
system.cpu.itb.readHits                             0                       # DTB read hits
system.cpu.itb.readMisses                           0                       # DTB read misses
system.cpu.itb.writeHits                            0                       # DTB write hits
system.cpu.itb.writeMisses                          0                       # DTB write misses
system.cpu.itb.inserts                              0                       # Number of times an entry is inserted into the TLB
system.cpu.itb.flushTlb                             0                       # Number of times complete TLB was flushed
system.cpu.itb.flushTlbMva                          0                       # Number of times TLB was flushed by MVA
system.cpu.itb.flushTlbMvaAsid                      0                       # Number of times TLB was flushed by MVA & ASID
system.cpu.itb.flushTlbAsid                         0                       # Number of times TLB was flushed by ASID
system.cpu.itb.flushedEntries                       0                       # Number of entries that have been flushed from TLB
system.cpu.itb.alignFaults                          0                       # Number of TLB faults due to alignment restrictions
system.cpu.itb.prefetchFaults                       0                       # Number of TLB faults due to prefetch
system.cpu.itb.domainFaults                         0                       # Number of TLB faults due to domain restrictions
system.cpu.itb.permsFaults                          0                       # Number of TLB faults due to permissions restrictions
system.cpu.itb.readAccesses                         0                       # DTB read accesses
system.cpu.itb.writeAccesses                        0                       # DTB write accesses
system.cpu.itb.instAccesses                         0                       # ITB inst accesses
system.cpu.itb.hits                                 0                       # Total TLB (inst and data) hits
system.cpu.itb.misses                               0                       # Total TLB (inst and data) misses
system.cpu.itb.accesses                             0                       # Total TLB (inst and data) accesses
system.cpu.itb.stage2_mmu.stage2_tlb.instHits            0                       # ITB inst hits
system.cpu.itb.stage2_mmu.stage2_tlb.instMisses            0                       # ITB inst misses
system.cpu.itb.stage2_mmu.stage2_tlb.readHits            0                       # DTB read hits
system.cpu.itb.stage2_mmu.stage2_tlb.readMisses            0                       # DTB read misses
system.cpu.itb.stage2_mmu.stage2_tlb.writeHits            0                       # DTB write hits
system.cpu.itb.stage2_mmu.stage2_tlb.writeMisses            0                       # DTB write misses
system.cpu.itb.stage2_mmu.stage2_tlb.inserts            0                       # Number of times an entry is inserted into the TLB
system.cpu.itb.stage2_mmu.stage2_tlb.flushTlb            0                       # Number of times complete TLB was flushed
system.cpu.itb.stage2_mmu.stage2_tlb.flushTlbMva            0                       # Number of times TLB was flushed by MVA
system.cpu.itb.stage2_mmu.stage2_tlb.flushTlbMvaAsid            0                       # Number of times TLB was flushed by MVA & ASID
system.cpu.itb.stage2_mmu.stage2_tlb.flushTlbAsid            0                       # Number of times TLB was flushed by ASID
system.cpu.itb.stage2_mmu.stage2_tlb.flushedEntries            0                       # Number of entries that have been flushed from TLB
system.cpu.itb.stage2_mmu.stage2_tlb.alignFaults            0                       # Number of TLB faults due to alignment restrictions
system.cpu.itb.stage2_mmu.stage2_tlb.prefetchFaults            0                       # Number of TLB faults due to prefetch
system.cpu.itb.stage2_mmu.stage2_tlb.domainFaults            0                       # Number of TLB faults due to domain restrictions
system.cpu.itb.stage2_mmu.stage2_tlb.permsFaults            0                       # Number of TLB faults due to permissions restrictions
system.cpu.itb.stage2_mmu.stage2_tlb.readAccesses            0                       # DTB read accesses
system.cpu.itb.stage2_mmu.stage2_tlb.writeAccesses            0                       # DTB write accesses
system.cpu.itb.stage2_mmu.stage2_tlb.instAccesses            0                       # ITB inst accesses
system.cpu.itb.stage2_mmu.stage2_tlb.hits            0                       # Total TLB (inst and data) hits
system.cpu.itb.stage2_mmu.stage2_tlb.misses            0                       # Total TLB (inst and data) misses
system.cpu.itb.stage2_mmu.stage2_tlb.accesses            0                       # Total TLB (inst and data) accesses
system.cpu.itb.stage2_mmu.stage2_tlb.walker.walks            0                       # Table walker walks requested
system.cpu.itb.stage2_mmu.stage2_tlb.walker.requestOrigin_Requested::Data            0                       # Table walker requests started/completed, data/inst
system.cpu.itb.stage2_mmu.stage2_tlb.walker.requestOrigin_Requested::Inst            0                       # Table walker requests started/completed, data/inst
system.cpu.itb.stage2_mmu.stage2_tlb.walker.requestOrigin_Requested::total            0                       # Table walker requests started/completed, data/inst
system.cpu.itb.stage2_mmu.stage2_tlb.walker.requestOrigin_Completed::Data            0                       # Table walker requests started/completed, data/inst
system.cpu.itb.stage2_mmu.stage2_tlb.walker.requestOrigin_Completed::Inst            0                       # Table walker requests started/completed, data/inst
system.cpu.itb.stage2_mmu.stage2_tlb.walker.requestOrigin_Completed::total            0                       # Table walker requests started/completed, data/inst
system.cpu.itb.stage2_mmu.stage2_tlb.walker.requestOrigin::total            0                       # Table walker requests started/completed, data/inst
system.cpu.itb.stage2_mmu.stage2_tlb.walker.power_state.pwrStateResidencyTicks::UNDEFINED  90988130500                       # Cumulative time (in ticks) in various power states
system.cpu.itb.walker.walks                         0                       # Table walker walks requested
system.cpu.itb.walker.requestOrigin_Requested::Data            0                       # Table walker requests started/completed, data/inst
system.cpu.itb.walker.requestOrigin_Requested::Inst            0                       # Table walker requests started/completed, data/inst
system.cpu.itb.walker.requestOrigin_Requested::total            0                       # Table walker requests started/completed, data/inst
system.cpu.itb.walker.requestOrigin_Completed::Data            0                       # Table walker requests started/completed, data/inst
system.cpu.itb.walker.requestOrigin_Completed::Inst            0                       # Table walker requests started/completed, data/inst
system.cpu.itb.walker.requestOrigin_Completed::total            0                       # Table walker requests started/completed, data/inst
system.cpu.itb.walker.requestOrigin::total            0                       # Table walker requests started/completed, data/inst
system.cpu.itb.walker.power_state.pwrStateResidencyTicks::UNDEFINED  90988130500                       # Cumulative time (in ticks) in various power states
system.cpu.power_state.pwrStateResidencyTicks::ON  90988130500                       # Cumulative time (in ticks) in various power states
system.cpu.thread0.numInsts                 100000001                       # Number of Instructions committed
system.cpu.thread0.numOps                   100196356                       # Number of Ops committed
system.cpu.thread0.numMemRefs                       0                       # Number of Memory References
system.cpu_clk_domain.clock                       500                       # Clock period in ticks
system.cpu_voltage_domain.voltage                   1                       # Voltage in Volts
system.l2.demand_hits::.cpu.inst                  191                       # number of demand (read+write) hits
system.l2.demand_hits::.cpu.data               700537                       # number of demand (read+write) hits
system.l2.demand_hits::total                   700728                       # number of demand (read+write) hits
system.l2.overall_hits::.cpu.inst                 191                       # number of overall hits
system.l2.overall_hits::.cpu.data              700537                       # number of overall hits
system.l2.overall_hits::total                  700728                       # number of overall hits
system.l2.demand_misses::.cpu.inst                694                       # number of demand (read+write) misses
system.l2.demand_misses::.cpu.data             286824                       # number of demand (read+write) misses
system.l2.demand_misses::total                 287518                       # number of demand (read+write) misses
system.l2.overall_misses::.cpu.inst               694                       # number of overall misses
system.l2.overall_misses::.cpu.data            286824                       # number of overall misses
system.l2.overall_misses::total                287518                       # number of overall misses
system.l2.demand_miss_latency::.cpu.inst     53635000                       # number of demand (read+write) miss cycles
system.l2.demand_miss_latency::.cpu.data  25101368000                       # number of demand (read+write) miss cycles
system.l2.demand_miss_latency::total      25155003000                       # number of demand (read+write) miss cycles
system.l2.overall_miss_latency::.cpu.inst     53635000                       # number of overall miss cycles
system.l2.overall_miss_latency::.cpu.data  25101368000                       # number of overall miss cycles
system.l2.overall_miss_latency::total     25155003000                       # number of overall miss cycles
system.l2.demand_accesses::.cpu.inst              885                       # number of demand (read+write) accesses
system.l2.demand_accesses::.cpu.data           987361                       # number of demand (read+write) accesses
system.l2.demand_accesses::total               988246                       # number of demand (read+write) accesses
system.l2.overall_accesses::.cpu.inst             885                       # number of overall (read+write) accesses
system.l2.overall_accesses::.cpu.data          987361                       # number of overall (read+write) accesses
system.l2.overall_accesses::total              988246                       # number of overall (read+write) accesses
system.l2.demand_miss_rate::.cpu.inst        0.784181                       # miss rate for demand accesses
system.l2.demand_miss_rate::.cpu.data        0.290496                       # miss rate for demand accesses
system.l2.demand_miss_rate::total            0.290938                       # miss rate for demand accesses
system.l2.overall_miss_rate::.cpu.inst       0.784181                       # miss rate for overall accesses
system.l2.overall_miss_rate::.cpu.data       0.290496                       # miss rate for overall accesses
system.l2.overall_miss_rate::total           0.290938                       # miss rate for overall accesses
system.l2.demand_avg_miss_latency::.cpu.inst 77283.861671                       # average overall miss latency
system.l2.demand_avg_miss_latency::.cpu.data 87514.880205                       # average overall miss latency
system.l2.demand_avg_miss_latency::total 87490.184962                       # average overall miss latency
system.l2.overall_avg_miss_latency::.cpu.inst 77283.861671                       # average overall miss latency
system.l2.overall_avg_miss_latency::.cpu.data 87514.880205                       # average overall miss latency
system.l2.overall_avg_miss_latency::total 87490.184962                       # average overall miss latency
system.l2.blocked_cycles::no_mshrs                  0                       # number of cycles access was blocked
system.l2.blocked_cycles::no_targets                0                       # number of cycles access was blocked
system.l2.blocked::no_mshrs                         0                       # number of cycles access was blocked
system.l2.blocked::no_targets                       0                       # number of cycles access was blocked
system.l2.avg_blocked_cycles::no_mshrs            nan                       # average number of cycles each access was blocked
system.l2.avg_blocked_cycles::no_targets          nan                       # average number of cycles each access was blocked
system.l2.writebacks::.writebacks              199884                       # number of writebacks
system.l2.writebacks::total                    199884                       # number of writebacks
system.l2.demand_mshr_hits::.cpu.data               6                       # number of demand (read+write) MSHR hits
system.l2.demand_mshr_hits::total                   6                       # number of demand (read+write) MSHR hits
system.l2.overall_mshr_hits::.cpu.data              6                       # number of overall MSHR hits
system.l2.overall_mshr_hits::total                  6                       # number of overall MSHR hits
system.l2.demand_mshr_misses::.cpu.inst           694                       # number of demand (read+write) MSHR misses
system.l2.demand_mshr_misses::.cpu.data        286818                       # number of demand (read+write) MSHR misses
system.l2.demand_mshr_misses::total            287512                       # number of demand (read+write) MSHR misses
system.l2.overall_mshr_misses::.cpu.inst          694                       # number of overall MSHR misses
system.l2.overall_mshr_misses::.cpu.data       286818                       # number of overall MSHR misses
system.l2.overall_mshr_misses::total           287512                       # number of overall MSHR misses
system.l2.demand_mshr_miss_latency::.cpu.inst     46695000                       # number of demand (read+write) MSHR miss cycles
system.l2.demand_mshr_miss_latency::.cpu.data  22232811000                       # number of demand (read+write) MSHR miss cycles
system.l2.demand_mshr_miss_latency::total  22279506000                       # number of demand (read+write) MSHR miss cycles
system.l2.overall_mshr_miss_latency::.cpu.inst     46695000                       # number of overall MSHR miss cycles
system.l2.overall_mshr_miss_latency::.cpu.data  22232811000                       # number of overall MSHR miss cycles
system.l2.overall_mshr_miss_latency::total  22279506000                       # number of overall MSHR miss cycles
system.l2.demand_mshr_miss_rate::.cpu.inst     0.784181                       # mshr miss rate for demand accesses
system.l2.demand_mshr_miss_rate::.cpu.data     0.290489                       # mshr miss rate for demand accesses
system.l2.demand_mshr_miss_rate::total       0.290932                       # mshr miss rate for demand accesses
system.l2.overall_mshr_miss_rate::.cpu.inst     0.784181                       # mshr miss rate for overall accesses
system.l2.overall_mshr_miss_rate::.cpu.data     0.290489                       # mshr miss rate for overall accesses
system.l2.overall_mshr_miss_rate::total      0.290932                       # mshr miss rate for overall accesses
system.l2.demand_avg_mshr_miss_latency::.cpu.inst 67283.861671                       # average overall mshr miss latency
system.l2.demand_avg_mshr_miss_latency::.cpu.data 77515.396523                       # average overall mshr miss latency
system.l2.demand_avg_mshr_miss_latency::total 77490.699519                       # average overall mshr miss latency
system.l2.overall_avg_mshr_miss_latency::.cpu.inst 67283.861671                       # average overall mshr miss latency
system.l2.overall_avg_mshr_miss_latency::.cpu.data 77515.396523                       # average overall mshr miss latency
system.l2.overall_avg_mshr_miss_latency::total 77490.699519                       # average overall mshr miss latency
system.l2.replacements                         282231                       # number of replacements
system.l2.WritebackDirty_hits::.writebacks       877922                       # number of WritebackDirty hits
system.l2.WritebackDirty_hits::total           877922                       # number of WritebackDirty hits
system.l2.WritebackDirty_accesses::.writebacks       877922                       # number of WritebackDirty accesses(hits+misses)
system.l2.WritebackDirty_accesses::total       877922                       # number of WritebackDirty accesses(hits+misses)
system.l2.WritebackClean_hits::.writebacks          484                       # number of WritebackClean hits
system.l2.WritebackClean_hits::total              484                       # number of WritebackClean hits
system.l2.WritebackClean_accesses::.writebacks          484                       # number of WritebackClean accesses(hits+misses)
system.l2.WritebackClean_accesses::total          484                       # number of WritebackClean accesses(hits+misses)
system.l2.CleanEvict_mshr_misses::.writebacks          292                       # number of CleanEvict MSHR misses
system.l2.CleanEvict_mshr_misses::total           292                       # number of CleanEvict MSHR misses
system.l2.CleanEvict_mshr_miss_rate::.writebacks          inf                       # mshr miss rate for CleanEvict accesses
system.l2.CleanEvict_mshr_miss_rate::total          inf                       # mshr miss rate for CleanEvict accesses
system.l2.ReadExReq_hits::.cpu.data            207178                       # number of ReadExReq hits
system.l2.ReadExReq_hits::total                207178                       # number of ReadExReq hits
system.l2.ReadExReq_misses::.cpu.data          176909                       # number of ReadExReq misses
system.l2.ReadExReq_misses::total              176909                       # number of ReadExReq misses
system.l2.ReadExReq_miss_latency::.cpu.data  15902544000                       # number of ReadExReq miss cycles
system.l2.ReadExReq_miss_latency::total   15902544000                       # number of ReadExReq miss cycles
system.l2.ReadExReq_accesses::.cpu.data        384087                       # number of ReadExReq accesses(hits+misses)
system.l2.ReadExReq_accesses::total            384087                       # number of ReadExReq accesses(hits+misses)
system.l2.ReadExReq_miss_rate::.cpu.data     0.460596                       # miss rate for ReadExReq accesses
system.l2.ReadExReq_miss_rate::total         0.460596                       # miss rate for ReadExReq accesses
system.l2.ReadExReq_avg_miss_latency::.cpu.data 89891.096552                       # average ReadExReq miss latency
system.l2.ReadExReq_avg_miss_latency::total 89891.096552                       # average ReadExReq miss latency
system.l2.ReadExReq_mshr_misses::.cpu.data       176909                       # number of ReadExReq MSHR misses
system.l2.ReadExReq_mshr_misses::total         176909                       # number of ReadExReq MSHR misses
system.l2.ReadExReq_mshr_miss_latency::.cpu.data  14133454000                       # number of ReadExReq MSHR miss cycles
system.l2.ReadExReq_mshr_miss_latency::total  14133454000                       # number of ReadExReq MSHR miss cycles
system.l2.ReadExReq_mshr_miss_rate::.cpu.data     0.460596                       # mshr miss rate for ReadExReq accesses
system.l2.ReadExReq_mshr_miss_rate::total     0.460596                       # mshr miss rate for ReadExReq accesses
system.l2.ReadExReq_avg_mshr_miss_latency::.cpu.data 79891.096552                       # average ReadExReq mshr miss latency
system.l2.ReadExReq_avg_mshr_miss_latency::total 79891.096552                       # average ReadExReq mshr miss latency
system.l2.ReadCleanReq_hits::.cpu.inst            191                       # number of ReadCleanReq hits
system.l2.ReadCleanReq_hits::total                191                       # number of ReadCleanReq hits
system.l2.ReadCleanReq_misses::.cpu.inst          694                       # number of ReadCleanReq misses
system.l2.ReadCleanReq_misses::total              694                       # number of ReadCleanReq misses
system.l2.ReadCleanReq_miss_latency::.cpu.inst     53635000                       # number of ReadCleanReq miss cycles
system.l2.ReadCleanReq_miss_latency::total     53635000                       # number of ReadCleanReq miss cycles
system.l2.ReadCleanReq_accesses::.cpu.inst          885                       # number of ReadCleanReq accesses(hits+misses)
system.l2.ReadCleanReq_accesses::total            885                       # number of ReadCleanReq accesses(hits+misses)
system.l2.ReadCleanReq_miss_rate::.cpu.inst     0.784181                       # miss rate for ReadCleanReq accesses
system.l2.ReadCleanReq_miss_rate::total      0.784181                       # miss rate for ReadCleanReq accesses
system.l2.ReadCleanReq_avg_miss_latency::.cpu.inst 77283.861671                       # average ReadCleanReq miss latency
system.l2.ReadCleanReq_avg_miss_latency::total 77283.861671                       # average ReadCleanReq miss latency
system.l2.ReadCleanReq_mshr_misses::.cpu.inst          694                       # number of ReadCleanReq MSHR misses
system.l2.ReadCleanReq_mshr_misses::total          694                       # number of ReadCleanReq MSHR misses
system.l2.ReadCleanReq_mshr_miss_latency::.cpu.inst     46695000                       # number of ReadCleanReq MSHR miss cycles
system.l2.ReadCleanReq_mshr_miss_latency::total     46695000                       # number of ReadCleanReq MSHR miss cycles
system.l2.ReadCleanReq_mshr_miss_rate::.cpu.inst     0.784181                       # mshr miss rate for ReadCleanReq accesses
system.l2.ReadCleanReq_mshr_miss_rate::total     0.784181                       # mshr miss rate for ReadCleanReq accesses
system.l2.ReadCleanReq_avg_mshr_miss_latency::.cpu.inst 67283.861671                       # average ReadCleanReq mshr miss latency
system.l2.ReadCleanReq_avg_mshr_miss_latency::total 67283.861671                       # average ReadCleanReq mshr miss latency
system.l2.ReadSharedReq_hits::.cpu.data        493359                       # number of ReadSharedReq hits
system.l2.ReadSharedReq_hits::total            493359                       # number of ReadSharedReq hits
system.l2.ReadSharedReq_misses::.cpu.data       109915                       # number of ReadSharedReq misses
system.l2.ReadSharedReq_misses::total          109915                       # number of ReadSharedReq misses
system.l2.ReadSharedReq_miss_latency::.cpu.data   9198824000                       # number of ReadSharedReq miss cycles
system.l2.ReadSharedReq_miss_latency::total   9198824000                       # number of ReadSharedReq miss cycles
system.l2.ReadSharedReq_accesses::.cpu.data       603274                       # number of ReadSharedReq accesses(hits+misses)
system.l2.ReadSharedReq_accesses::total        603274                       # number of ReadSharedReq accesses(hits+misses)
system.l2.ReadSharedReq_miss_rate::.cpu.data     0.182197                       # miss rate for ReadSharedReq accesses
system.l2.ReadSharedReq_miss_rate::total     0.182197                       # miss rate for ReadSharedReq accesses
system.l2.ReadSharedReq_avg_miss_latency::.cpu.data 83690.342537                       # average ReadSharedReq miss latency
system.l2.ReadSharedReq_avg_miss_latency::total 83690.342537                       # average ReadSharedReq miss latency
system.l2.ReadSharedReq_mshr_hits::.cpu.data            6                       # number of ReadSharedReq MSHR hits
system.l2.ReadSharedReq_mshr_hits::total            6                       # number of ReadSharedReq MSHR hits
system.l2.ReadSharedReq_mshr_misses::.cpu.data       109909                       # number of ReadSharedReq MSHR misses
system.l2.ReadSharedReq_mshr_misses::total       109909                       # number of ReadSharedReq MSHR misses
system.l2.ReadSharedReq_mshr_miss_latency::.cpu.data   8099357000                       # number of ReadSharedReq MSHR miss cycles
system.l2.ReadSharedReq_mshr_miss_latency::total   8099357000                       # number of ReadSharedReq MSHR miss cycles
system.l2.ReadSharedReq_mshr_miss_rate::.cpu.data     0.182188                       # mshr miss rate for ReadSharedReq accesses
system.l2.ReadSharedReq_mshr_miss_rate::total     0.182188                       # mshr miss rate for ReadSharedReq accesses
system.l2.ReadSharedReq_avg_mshr_miss_latency::.cpu.data 73691.481134                       # average ReadSharedReq mshr miss latency
system.l2.ReadSharedReq_avg_mshr_miss_latency::total 73691.481134                       # average ReadSharedReq mshr miss latency
system.l2.power_state.pwrStateResidencyTicks::UNDEFINED  90988130500                       # Cumulative time (in ticks) in various power states
system.l2.tags.tagsinuse                  8045.620613                       # Cycle average of tags in use
system.l2.tags.total_refs                     1974005                       # Total number of references to valid blocks.
system.l2.tags.sampled_refs                    290423                       # Sample count of references to valid blocks.
system.l2.tags.avg_refs                      6.797000                       # Average number of references to valid blocks.
system.l2.tags.warmup_cycle                     77000                       # Cycle when the warmup percentage was hit.
system.l2.tags.occ_blocks::.writebacks      73.833708                       # Average occupied blocks per requestor
system.l2.tags.occ_blocks::.cpu.inst        20.068566                       # Average occupied blocks per requestor
system.l2.tags.occ_blocks::.cpu.data      7951.718339                       # Average occupied blocks per requestor
system.l2.tags.occ_percent::.writebacks      0.009013                       # Average percentage of cache occupancy
system.l2.tags.occ_percent::.cpu.inst        0.002450                       # Average percentage of cache occupancy
system.l2.tags.occ_percent::.cpu.data        0.970669                       # Average percentage of cache occupancy
system.l2.tags.occ_percent::total            0.982131                       # Average percentage of cache occupancy
system.l2.tags.occ_task_id_blocks::1024          8192                       # Occupied blocks per task id
system.l2.tags.age_task_id_blocks_1024::0           13                       # Occupied blocks per task id
system.l2.tags.age_task_id_blocks_1024::1          317                       # Occupied blocks per task id
system.l2.tags.age_task_id_blocks_1024::2         3498                       # Occupied blocks per task id
system.l2.tags.age_task_id_blocks_1024::3         4260                       # Occupied blocks per task id
system.l2.tags.age_task_id_blocks_1024::4          104                       # Occupied blocks per task id
system.l2.tags.occ_task_id_percent::1024            1                       # Percentage of cache occupancy per task id
system.l2.tags.tag_accesses                   4239029                       # Number of tag accesses
system.l2.tags.data_accesses                  4239029                       # Number of data accesses
system.l2.tags.power_state.pwrStateResidencyTicks::UNDEFINED  90988130500                       # Cumulative time (in ticks) in various power states
system.mem_ctrls.avgPriority_.writebacks::samples    199856.00                       # Average QoS priority value for accepted requests
system.mem_ctrls.avgPriority_.cpu.inst::samples       694.00                       # Average QoS priority value for accepted requests
system.mem_ctrls.avgPriority_.cpu.data::samples    285864.00                       # Average QoS priority value for accepted requests
system.mem_ctrls.priorityMinLatency      0.000000018750                       # per QoS priority minimum request to response latency (s)
system.mem_ctrls.priorityMaxLatency      0.003169284500                       # per QoS priority maximum request to response latency (s)
system.mem_ctrls.numReadWriteTurnArounds        11845                       # Number of turnarounds from READ to WRITE
system.mem_ctrls.numWriteReadTurnArounds        11845                       # Number of turnarounds from WRITE to READ
system.mem_ctrls.numStayReadState              781273                       # Number of times bus staying in READ state
system.mem_ctrls.numStayWriteState             188272                       # Number of times bus staying in WRITE state
system.mem_ctrls.readReqs                      287512                       # Number of read requests accepted
system.mem_ctrls.writeReqs                     199884                       # Number of write requests accepted
system.mem_ctrls.readBursts                    287512                       # Number of controller read bursts, including those serviced by the write queue
system.mem_ctrls.writeBursts                   199884                       # Number of controller write bursts, including those merged in the write queue
system.mem_ctrls.servicedByWrQ                    954                       # Number of controller read bursts serviced by the write queue
system.mem_ctrls.mergedWrBursts                    28                       # Number of controller write bursts merged with an existing one
system.mem_ctrls.neitherReadNorWriteReqs            0                       # Number of requests that are neither read nor write
system.mem_ctrls.avgRdQLen                       1.10                       # Average read queue length when enqueuing
system.mem_ctrls.avgWrQLen                      24.83                       # Average write queue length when enqueuing
system.mem_ctrls.numRdRetry                         0                       # Number of times read queue was full causing retry
system.mem_ctrls.numWrRetry                         0                       # Number of times write queue was full causing retry
system.mem_ctrls.readPktSize::0                     0                       # Read request sizes (log2)
system.mem_ctrls.readPktSize::1                     0                       # Read request sizes (log2)
system.mem_ctrls.readPktSize::2                     0                       # Read request sizes (log2)
system.mem_ctrls.readPktSize::3                     0                       # Read request sizes (log2)
system.mem_ctrls.readPktSize::4                     0                       # Read request sizes (log2)
system.mem_ctrls.readPktSize::5                     0                       # Read request sizes (log2)
system.mem_ctrls.readPktSize::6                287512                       # Read request sizes (log2)
system.mem_ctrls.writePktSize::0                    0                       # Write request sizes (log2)
system.mem_ctrls.writePktSize::1                    0                       # Write request sizes (log2)
system.mem_ctrls.writePktSize::2                    0                       # Write request sizes (log2)
system.mem_ctrls.writePktSize::3                    0                       # Write request sizes (log2)
system.mem_ctrls.writePktSize::4                    0                       # Write request sizes (log2)
system.mem_ctrls.writePktSize::5                    0                       # Write request sizes (log2)
system.mem_ctrls.writePktSize::6               199884                       # Write request sizes (log2)
system.mem_ctrls.rdQLenPdf::0                  214575                       # What read queue length does an incoming req see
system.mem_ctrls.rdQLenPdf::1                   69160                       # What read queue length does an incoming req see
system.mem_ctrls.rdQLenPdf::2                    2426                       # What read queue length does an incoming req see
system.mem_ctrls.rdQLenPdf::3                     396                       # What read queue length does an incoming req see
system.mem_ctrls.rdQLenPdf::4                       1                       # What read queue length does an incoming req see
system.mem_ctrls.rdQLenPdf::5                       0                       # What read queue length does an incoming req see
system.mem_ctrls.rdQLenPdf::6                       0                       # What read queue length does an incoming req see
system.mem_ctrls.rdQLenPdf::7                       0                       # What read queue length does an incoming req see
system.mem_ctrls.rdQLenPdf::8                       0                       # What read queue length does an incoming req see
[...]
system.mem_ctrls.dram.bw_write::.writebacks    140596097                       # Write bandwidth from this memory (bytes/s)
system.mem_ctrls.dram.bw_write::total       140596097                       # Write bandwidth from this memory (bytes/s)
system.mem_ctrls.dram.bw_total::.writebacks    140596097                       # Total bandwidth to/from this memory (bytes/s)
system.mem_ctrls.dram.bw_total::.cpu.inst       488152                       # Total bandwidth to/from this memory (bytes/s)
system.mem_ctrls.dram.bw_total::.cpu.data    201744468                       # Total bandwidth to/from this memory (bytes/s)
system.mem_ctrls.dram.bw_total::total       342828717                       # Total bandwidth to/from this memory (bytes/s)
system.mem_ctrls.dram.readBursts               286558                       # Number of DRAM read bursts
system.mem_ctrls.dram.writeBursts              199831                       # Number of DRAM write bursts
system.mem_ctrls.dram.perBankRdBursts::0        17428                       # Per bank write bursts
system.mem_ctrls.dram.perBankRdBursts::1        17632                       # Per bank write bursts
system.mem_ctrls.dram.perBankRdBursts::2        17362                       # Per bank write bursts
system.mem_ctrls.dram.perBankRdBursts::3        17188                       # Per bank write bursts
system.mem_ctrls.dram.perBankRdBursts::4        18346                       # Per bank write bursts
system.mem_ctrls.dram.perBankRdBursts::5        17176                       # Per bank write bursts
system.mem_ctrls.dram.perBankRdBursts::6        18165                       # Per bank write bursts
system.mem_ctrls.dram.perBankRdBursts::7        18892                       # Per bank write bursts
system.mem_ctrls.dram.perBankRdBursts::8        19155                       # Per bank write bursts
system.mem_ctrls.dram.perBankRdBursts::9        17698                       # Per bank write bursts
system.mem_ctrls.dram.perBankRdBursts::10        16491                       # Per bank write bursts
system.mem_ctrls.dram.perBankRdBursts::11        18961                       # Per bank write bursts
system.mem_ctrls.dram.perBankRdBursts::12        17454                       # Per bank write bursts
system.mem_ctrls.dram.perBankRdBursts::13        18360                       # Per bank write bursts
system.mem_ctrls.dram.perBankRdBursts::14        18199                       # Per bank write bursts
system.mem_ctrls.dram.perBankRdBursts::15        18051                       # Per bank write bursts
system.mem_ctrls.dram.perBankWrBursts::0        11799                       # Per bank write bursts
system.mem_ctrls.dram.perBankWrBursts::1        12061                       # Per bank write bursts
system.mem_ctrls.dram.perBankWrBursts::2        11834                       # Per bank write bursts
system.mem_ctrls.dram.perBankWrBursts::3        11723                       # Per bank write bursts
system.mem_ctrls.dram.perBankWrBursts::4        12781                       # Per bank write bursts
system.mem_ctrls.dram.perBankWrBursts::5        12005                       # Per bank write bursts
system.mem_ctrls.dram.perBankWrBursts::6        12847                       # Per bank write bursts
system.mem_ctrls.dram.perBankWrBursts::7        13586                       # Per bank write bursts
system.mem_ctrls.dram.perBankWrBursts::8        13883                       # Per bank write bursts
system.mem_ctrls.dram.perBankWrBursts::9        12622                       # Per bank write bursts
system.mem_ctrls.dram.perBankWrBursts::10        11176                       # Per bank write bursts
system.mem_ctrls.dram.perBankWrBursts::11        13621                       # Per bank write bursts
system.mem_ctrls.dram.perBankWrBursts::12        11871                       # Per bank write bursts
system.mem_ctrls.dram.perBankWrBursts::13        12797                       # Per bank write bursts
system.mem_ctrls.dram.perBankWrBursts::14        12638                       # Per bank write bursts
system.mem_ctrls.dram.perBankWrBursts::15        12587                       # Per bank write bursts
system.mem_ctrls.dram.totQLat              5059408250                       # Total ticks spent queuing
system.mem_ctrls.dram.totBusLat            1432790000                       # Total ticks spent in databus transfers
system.mem_ctrls.dram.totMemAccLat        10432370750                       # Total ticks spent from burst creation until serviced by the DRAM
system.mem_ctrls.dram.avgQLat                17655.79                       # Average queueing delay per DRAM burst
system.mem_ctrls.dram.avgBusLat               5000.00                       # Average bus latency per DRAM burst
system.mem_ctrls.dram.avgMemAccLat           36405.79                       # Average memory access latency per DRAM burst
system.mem_ctrls.dram.readRowHits              153480                       # Number of row buffer hits during reads
system.mem_ctrls.dram.writeRowHits             102787                       # Number of row buffer hits during writes
system.mem_ctrls.dram.readRowHitRate            53.56                       # Row buffer hit rate for reads
system.mem_ctrls.dram.writeRowHitRate           51.44                       # Row buffer hit rate for writes
system.mem_ctrls.dram.bytesPerActivate::samples       230122                       # Bytes accessed per row activation
system.mem_ctrls.dram.bytesPerActivate::mean   135.271273                       # Bytes accessed per row activation
system.mem_ctrls.dram.bytesPerActivate::gmean    90.205266                       # Bytes accessed per row activation
system.mem_ctrls.dram.bytesPerActivate::stdev   194.623770                       # Bytes accessed per row activation
system.mem_ctrls.dram.bytesPerActivate::0-127       173055     75.20%     75.20% # Bytes accessed per row activation
system.mem_ctrls.dram.bytesPerActivate::128-255        31864     13.85%     89.05% # Bytes accessed per row activation
system.mem_ctrls.dram.bytesPerActivate::256-383         4590      1.99%     91.04% # Bytes accessed per row activation
system.mem_ctrls.dram.bytesPerActivate::384-511         2005      0.87%     91.91% # Bytes accessed per row activation
system.mem_ctrls.dram.bytesPerActivate::512-639         9964      4.33%     96.24% # Bytes accessed per row activation
system.mem_ctrls.dram.bytesPerActivate::640-767          604      0.26%     96.51% # Bytes accessed per row activation
system.mem_ctrls.dram.bytesPerActivate::768-895          971      0.42%     96.93% # Bytes accessed per row activation
system.mem_ctrls.dram.bytesPerActivate::896-1023          446      0.19%     97.12% # Bytes accessed per row activation
system.mem_ctrls.dram.bytesPerActivate::1024-1151         6623      2.88%    100.00% # Bytes accessed per row activation
system.mem_ctrls.dram.bytesPerActivate::total       230122                       # Bytes accessed per row activation
system.mem_ctrls.dram.bytesRead              18339712                       # Total number of bytes read from DRAM
system.mem_ctrls.dram.bytesWritten           12789184                       # Total number of bytes written to DRAM
system.mem_ctrls.dram.avgRdBW              201.561587                       # Average DRAM read bandwidth in MiBytes/s
system.mem_ctrls.dram.avgWrBW              140.558817                       # Average DRAM write bandwidth in MiBytes/s
system.mem_ctrls.dram.peakBW                 12800.00                       # Theoretical peak bandwidth in MiByte/s
system.mem_ctrls.dram.busUtil                    2.67                       # Data bus utilization in percentage
system.mem_ctrls.dram.busUtilRead                1.57                       # Data bus utilization in percentage for reads
system.mem_ctrls.dram.busUtilWrite               1.10                       # Data bus utilization in percentage for writes
system.mem_ctrls.dram.pageHitRate               52.69                       # Row buffer hit rate, read and write combined
system.mem_ctrls.dram.power_state.pwrStateResidencyTicks::UNDEFINED  90988130500                       # Cumulative time (in ticks) in various power states
system.mem_ctrls.dram.rank0.actEnergy       805541940                       # Energy for activate commands per rank (pJ)
system.mem_ctrls.dram.rank0.preEnergy       428155695                       # Energy for precharge commands per rank (pJ)
system.mem_ctrls.dram.rank0.readEnergy     1015229460                       # Energy for read commands per rank (pJ)
system.mem_ctrls.dram.rank0.writeEnergy     514879920                       # Energy for write commands per rank (pJ)
system.mem_ctrls.dram.rank0.refreshEnergy 7182068400.000001                       # Energy for refresh commands per rank (pJ)
system.mem_ctrls.dram.rank0.actBackEnergy  27462455790                       # Energy for active background per rank (pJ)
system.mem_ctrls.dram.rank0.preBackEnergy  11813163840                       # Energy for precharge background per rank (pJ)
system.mem_ctrls.dram.rank0.actPowerDownEnergy            0                       # Energy for active power-down per rank (pJ)
system.mem_ctrls.dram.rank0.prePowerDownEnergy            0                       # Energy for precharge power-down per rank (pJ)
system.mem_ctrls.dram.rank0.selfRefreshEnergy            0                       # Energy for self refresh per rank (pJ)
system.mem_ctrls.dram.rank0.totalEnergy   49221495045                       # Total energy per rank (pJ)
system.mem_ctrls.dram.rank0.averagePower   540.966110                       # Core power per rank (mW)
system.mem_ctrls.dram.rank0.totalIdleTime            0                       # Total Idle time Per DRAM Rank
system.mem_ctrls.dram.rank0.pwrStateTime::IDLE  30427666500                       # Time in different power states
system.mem_ctrls.dram.rank0.pwrStateTime::REF   3038100000                       # Time in different power states
system.mem_ctrls.dram.rank0.pwrStateTime::SREF            0                       # Time in different power states
system.mem_ctrls.dram.rank0.pwrStateTime::PRE_PDN            0                       # Time in different power states
system.mem_ctrls.dram.rank0.pwrStateTime::ACT  57522364000                       # Time in different power states
system.mem_ctrls.dram.rank0.pwrStateTime::ACT_PDN            0                       # Time in different power states
system.mem_ctrls.dram.rank1.actEnergy       837529140                       # Energy for activate commands per rank (pJ)
system.mem_ctrls.dram.rank1.preEnergy       445157295                       # Energy for precharge commands per rank (pJ)
system.mem_ctrls.dram.rank1.readEnergy     1030794660                       # Energy for read commands per rank (pJ)
system.mem_ctrls.dram.rank1.writeEnergy     528237900                       # Energy for write commands per rank (pJ)
system.mem_ctrls.dram.rank1.refreshEnergy 7182068400.000001                       # Energy for refresh commands per rank (pJ)
system.mem_ctrls.dram.rank1.actBackEnergy  26994595230                       # Energy for active background per rank (pJ)
system.mem_ctrls.dram.rank1.preBackEnergy  12207151680                       # Energy for precharge background per rank (pJ)
system.mem_ctrls.dram.rank1.actPowerDownEnergy            0                       # Energy for active power-down per rank (pJ)
system.mem_ctrls.dram.rank1.prePowerDownEnergy            0                       # Energy for precharge power-down per rank (pJ)
system.mem_ctrls.dram.rank1.selfRefreshEnergy            0                       # Energy for self refresh per rank (pJ)
system.mem_ctrls.dram.rank1.totalEnergy   49225534305                       # Total energy per rank (pJ)
system.mem_ctrls.dram.rank1.averagePower   541.010504                       # Core power per rank (mW)
system.mem_ctrls.dram.rank1.totalIdleTime            0                       # Total Idle time Per DRAM Rank
system.mem_ctrls.dram.rank1.pwrStateTime::IDLE  31455663500                       # Time in different power states
system.mem_ctrls.dram.rank1.pwrStateTime::REF   3038100000                       # Time in different power states
system.mem_ctrls.dram.rank1.pwrStateTime::SREF            0                       # Time in different power states
system.mem_ctrls.dram.rank1.pwrStateTime::PRE_PDN            0                       # Time in different power states
system.mem_ctrls.dram.rank1.pwrStateTime::ACT  56494367000                       # Time in different power states
system.mem_ctrls.dram.rank1.pwrStateTime::ACT_PDN            0                       # Time in different power states
system.mem_ctrls.power_state.pwrStateResidencyTicks::UNDEFINED  90988130500                       # Cumulative time (in ticks) in various power states
system.membus.trans_dist::ReadResp             110603                       # Transaction distribution
system.membus.trans_dist::WritebackDirty       199884                       # Transaction distribution
system.membus.trans_dist::CleanEvict            79032                       # Transaction distribution
system.membus.trans_dist::ReadExReq            176909                       # Transaction distribution
system.membus.trans_dist::ReadExResp           176909                       # Transaction distribution
system.membus.trans_dist::ReadSharedReq        110603                       # Transaction distribution
system.membus.pkt_count_system.l2.mem_side_port::system.mem_ctrls.port       853940                       # Packet count per connected requestor and responder (bytes)
system.membus.pkt_count::total                 853940                       # Packet count per connected requestor and responder (bytes)
system.membus.pkt_size_system.l2.mem_side_port::system.mem_ctrls.port     31193344                       # Cumulative packet size per connected requestor and responder (bytes)
system.membus.pkt_size::total                31193344                       # Cumulative packet size per connected requestor and responder (bytes)
system.membus.snoops                                0                       # Total snoops (count)
system.membus.snoopTraffic                          0                       # Total snoop traffic (bytes)
system.membus.snoop_fanout::samples            287512                       # Request fanout histogram
system.membus.snoop_fanout::mean                    0                       # Request fanout histogram
system.membus.snoop_fanout::stdev                   0                       # Request fanout histogram
system.membus.snoop_fanout::underflows              0      0.00%      0.00% # Request fanout histogram
system.membus.snoop_fanout::0                  287512    100.00%    100.00% # Request fanout histogram
system.membus.snoop_fanout::1                       0      0.00%    100.00% # Request fanout histogram
system.membus.snoop_fanout::overflows               0      0.00%    100.00% # Request fanout histogram
system.membus.snoop_fanout::min_value               0                       # Request fanout histogram
system.membus.snoop_fanout::max_value               0                       # Request fanout histogram
system.membus.snoop_fanout::total              287512                       # Request fanout histogram
system.membus.power_state.pwrStateResidencyTicks::UNDEFINED  90988130500                       # Cumulative time (in ticks) in various power states
system.membus.reqLayer0.occupancy          1420623000                       # Layer occupancy (ticks)
system.membus.reqLayer0.utilization               1.6                       # Layer utilization (%)
system.membus.respLayer1.occupancy         1561998250                       # Layer occupancy (ticks)
system.membus.respLayer1.utilization              1.7                       # Layer utilization (%)
system.tol2bus.trans_dist::ReadResp            604159                       # Transaction distribution
system.tol2bus.trans_dist::WritebackDirty      1077806                       # Transaction distribution
system.tol2bus.trans_dist::WritebackClean          504                       # Transaction distribution
system.tol2bus.trans_dist::CleanEvict          191274                       # Transaction distribution
system.tol2bus.trans_dist::ReadExReq           384087                       # Transaction distribution
system.tol2bus.trans_dist::ReadExResp          384087                       # Transaction distribution
system.tol2bus.trans_dist::ReadCleanReq           885                       # Transaction distribution
system.tol2bus.trans_dist::ReadSharedReq       603274                       # Transaction distribution
system.tol2bus.pkt_count_system.cpu.icache.mem_side_port::system.l2.cpu_side_port         2274                       # Packet count per connected requestor and responder (bytes)
system.tol2bus.pkt_count_system.cpu.dcache.mem_side_port::system.l2.cpu_side_port      2961571                       # Packet count per connected requestor and responder (bytes)
system.tol2bus.pkt_count::total               2963845                       # Packet count per connected requestor and responder (bytes)
system.tol2bus.pkt_size_system.cpu.icache.mem_side_port::system.l2.cpu_side_port        88896                       # Cumulative packet size per connected requestor and responder (bytes)
system.tol2bus.pkt_size_system.cpu.dcache.mem_side_port::system.l2.cpu_side_port    119378112                       # Cumulative packet size per connected requestor and responder (bytes)
system.tol2bus.pkt_size::total              119467008                       # Cumulative packet size per connected requestor and responder (bytes)
system.tol2bus.snoops                          282231                       # Total snoops (count)
system.tol2bus.snoopTraffic                  12792576                       # Total snoop traffic (bytes)
system.tol2bus.snoop_fanout::samples          1270477                       # Request fanout histogram
system.tol2bus.snoop_fanout::mean            0.003872                       # Request fanout histogram
system.tol2bus.snoop_fanout::stdev           0.062293                       # Request fanout histogram
system.tol2bus.snoop_fanout::underflows             0      0.00%      0.00% # Request fanout histogram
system.tol2bus.snoop_fanout::0                1265573     99.61%     99.61% # Request fanout histogram
system.tol2bus.snoop_fanout::1                   4889      0.38%    100.00% # Request fanout histogram
system.tol2bus.snoop_fanout::2                     15      0.00%    100.00% # Request fanout histogram
system.tol2bus.snoop_fanout::overflows              0      0.00%    100.00% # Request fanout histogram
system.tol2bus.snoop_fanout::min_value              0                       # Request fanout histogram
system.tol2bus.snoop_fanout::max_value              2                       # Request fanout histogram
system.tol2bus.snoop_fanout::total            1270477                       # Request fanout histogram
system.tol2bus.power_state.pwrStateResidencyTicks::UNDEFINED  90988130500                       # Cumulative time (in ticks) in various power states
system.tol2bus.reqLayer0.occupancy         1866225500                       # Layer occupancy (ticks)
system.tol2bus.reqLayer0.utilization              2.1                       # Layer utilization (%)
system.tol2bus.respLayer0.occupancy           1327500                       # Layer occupancy (ticks)
system.tol2bus.respLayer0.utilization             0.0                       # Layer utilization (%)
system.tol2bus.respLayer1.occupancy        1481044993                       # Layer occupancy (ticks)
system.tol2bus.respLayer1.utilization             1.6                       # Layer utilization (%)
system.voltage_domain.voltage                       1                       # Voltage in Volts

---------- End Simulation Statistics   ----------
