
---------- Begin Simulation Statistics ----------
final_tick                               265049145000                       # Number of ticks from beginning of simulation (restored from checkpoints and never reset)
host_inst_rate                                 124118                       # Simulator instruction rate (inst/s)
host_mem_usage                                 654076                       # Number of bytes of host memory used
host_op_rate                                   124123                       # Simulator op (including micro ops) rate (op/s)
host_seconds                                   805.68                       # Real time elapsed on the host
host_tick_rate                              328974786                       # Simulator tick rate (ticks/s)
sim_freq                                 1000000000000                       # Frequency of simulated ticks
sim_insts                                   100000000                       # Number of instructions simulated
sim_ops                                     100003676                       # Number of ops (including micro ops) simulated
sim_seconds                                  0.265049                       # Number of seconds simulated
sim_ticks                                265049145000                       # Number of ticks simulated
system.cpu.committedInsts                   100000000                       # Number of instructions committed
system.cpu.committedOps                     100003676                       # Number of ops (including micro ops) committed
system.cpu.cpi                               2.650491                       # CPI: cycles per instruction
system.cpu.discardedOps                         21179                       # Number of ops (including micro ops) which were discarded before commit
system.cpu.idleCycles                       147627389                       # Total number of cycles that the object has spent stopped
system.cpu.ipc                               0.377289                       # IPC: instructions per cycle
system.cpu.numCycles                        265049145                       # number of cpu cycles simulated
system.cpu.numFetchSuspends                         0                       # Number of times Execute suspended instruction fetching
system.cpu.numWorkItemsCompleted                    0                       # number of work items this cpu completed
system.cpu.numWorkItemsStarted                      0                       # number of work items this cpu started
system.cpu.op_class_0::No_OpClass                   0      0.00%      0.00% # Class of committed instruction
system.cpu.op_class_0::IntAlu                49995472     49.99%     49.99% # Class of committed instruction
system.cpu.op_class_0::IntMult                     88      0.00%     49.99% # Class of committed instruction
system.cpu.op_class_0::IntDiv                       0      0.00%     49.99% # Class of committed instruction
system.cpu.op_class_0::FloatAdd                     0      0.00%     49.99% # Class of committed instruction
system.cpu.op_class_0::FloatCmp                     0      0.00%     49.99% # Class of committed instruction
system.cpu.op_class_0::FloatCvt                     0      0.00%     49.99% # Class of committed instruction
system.cpu.op_class_0::FloatMult                    0      0.00%     49.99% # Class of committed instruction
system.cpu.op_class_0::FloatMultAcc                 0      0.00%     49.99% # Class of committed instruction
system.cpu.op_class_0::FloatDiv                     0      0.00%     49.99% # Class of committed instruction
system.cpu.op_class_0::FloatMisc                    0      0.00%     49.99% # Class of committed instruction
system.cpu.op_class_0::FloatSqrt                    0      0.00%     49.99% # Class of committed instruction
system.cpu.op_class_0::SimdAdd                      0      0.00%     49.99% # Class of committed instruction
system.cpu.op_class_0::SimdAddAcc                   0      0.00%     49.99% # Class of committed instruction
system.cpu.op_class_0::SimdAlu                      0      0.00%     49.99% # Class of committed instruction
system.cpu.op_class_0::SimdCmp                      0      0.00%     49.99% # Class of committed instruction
system.cpu.op_class_0::SimdCvt                      0      0.00%     49.99% # Class of committed instruction
system.cpu.op_class_0::SimdMisc                     0      0.00%     49.99% # Class of committed instruction
system.cpu.op_class_0::SimdMult                     0      0.00%     49.99% # Class of committed instruction
system.cpu.op_class_0::SimdMultAcc                  0      0.00%     49.99% # Class of committed instruction
system.cpu.op_class_0::SimdShift                    0      0.00%     49.99% # Class of committed instruction
system.cpu.op_class_0::SimdShiftAcc                 0      0.00%     49.99% # Class of committed instruction
system.cpu.op_class_0::SimdDiv                      0      0.00%     49.99% # Class of committed instruction
system.cpu.op_class_0::SimdSqrt                     0      0.00%     49.99% # Class of committed instruction
system.cpu.op_class_0::SimdFloatAdd                 0      0.00%     49.99% # Class of committed instruction
system.cpu.op_class_0::SimdFloatAlu                 0      0.00%     49.99% # Class of committed instruction
system.cpu.op_class_0::SimdFloatCmp                 2      0.00%     49.99% # Class of committed instruction
system.cpu.op_class_0::SimdFloatCvt                 0      0.00%     49.99% # Class of committed instruction
system.cpu.op_class_0::SimdFloatDiv                 0      0.00%     49.99% # Class of committed instruction
system.cpu.op_class_0::SimdFloatMisc               22      0.00%     49.99% # Class of committed instruction
system.cpu.op_class_0::SimdFloatMult                0      0.00%     49.99% # Class of committed instruction
system.cpu.op_class_0::SimdFloatMultAcc             0      0.00%     49.99% # Class of committed instruction
system.cpu.op_class_0::SimdFloatSqrt                0      0.00%     49.99% # Class of committed instruction
system.cpu.op_class_0::SimdReduceAdd                0      0.00%     49.99% # Class of committed instruction
system.cpu.op_class_0::SimdReduceAlu                0      0.00%     49.99% # Class of committed instruction
system.cpu.op_class_0::SimdReduceCmp                0      0.00%     49.99% # Class of committed instruction
system.cpu.op_class_0::SimdFloatReduceAdd            0      0.00%     49.99% # Class of committed instruction
system.cpu.op_class_0::SimdFloatReduceCmp            0      0.00%     49.99% # Class of committed instruction
system.cpu.op_class_0::SimdAes                      0      0.00%     49.99% # Class of committed instruction
system.cpu.op_class_0::SimdAesMix                   0      0.00%     49.99% # Class of committed instruction
system.cpu.op_class_0::SimdSha1Hash                 0      0.00%     49.99% # Class of committed instruction
system.cpu.op_class_0::SimdSha1Hash2                0      0.00%     49.99% # Class of committed instruction
system.cpu.op_class_0::SimdSha256Hash               0      0.00%     49.99% # Class of committed instruction
system.cpu.op_class_0::SimdSha256Hash2              0      0.00%     49.99% # Class of committed instruction
system.cpu.op_class_0::SimdShaSigma2                0      0.00%     49.99% # Class of committed instruction
system.cpu.op_class_0::SimdShaSigma3                0      0.00%     49.99% # Class of committed instruction
system.cpu.op_class_0::SimdPredAlu                  0      0.00%     49.99% # Class of committed instruction
system.cpu.op_class_0::MemRead               36892238     36.89%     86.88% # Class of committed instruction
system.cpu.op_class_0::MemWrite              13115854     13.12%    100.00% # Class of committed instruction
system.cpu.op_class_0::FloatMemRead                 0      0.00%    100.00% # Class of committed instruction
system.cpu.op_class_0::FloatMemWrite                0      0.00%    100.00% # Class of committed instruction
system.cpu.op_class_0::IprAccess                    0      0.00%    100.00% # Class of committed instruction
system.cpu.op_class_0::InstPrefetch                 0      0.00%    100.00% # Class of committed instruction
system.cpu.op_class_0::total                100003676                       # Class of committed instruction
system.cpu.tickCycles                       117421756                       # Number of cycles that the object actually ticked
system.cpu.workload.numSyscalls                    19                       # Number of system calls
system.membus.snoop_filter.hit_multi_requests            0                       # Number of requests hitting in the snoop filter with multiple (>1) holders of the requested data.
system.membus.snoop_filter.hit_multi_snoops            0                       # Number of snoops hitting in the snoop filter with multiple (>1) holders of the requested data.
system.membus.snoop_filter.hit_single_requests      1479791                       # Number of requests hitting in the snoop filter with a single holder of the requested data.
system.membus.snoop_filter.hit_single_snoops            0                       # Number of snoops hitting in the snoop filter with a single holder of the requested data.
system.membus.snoop_filter.tot_requests       2967900                       # Total number of requests made to the snoop filter.
system.membus.snoop_filter.tot_snoops               0                       # Total number of snoops made to the snoop filter.
system.tol2bus.snoop_filter.hit_multi_requests        11676                       # Number of requests hitting in the snoop filter with multiple (>1) holders of the requested data.
system.tol2bus.snoop_filter.hit_multi_snoops            0                       # Number of snoops hitting in the snoop filter with multiple (>1) holders of the requested data.
system.tol2bus.snoop_filter.hit_single_requests      1528724                       # Number of requests hitting in the snoop filter with a single holder of the requested data.
system.tol2bus.snoop_filter.hit_single_snoops          126                       # Number of snoops hitting in the snoop filter with a single holder of the requested data.
system.tol2bus.snoop_filter.tot_requests      3058085                       # Total number of requests made to the snoop filter.
system.tol2bus.snoop_filter.tot_snoops            126                       # Total number of snoops made to the snoop filter.
system.clk_domain.clock                          1000                       # Clock period in ticks
system.cpu.branchPred.lookups                  606518                       # Number of BP lookups
system.cpu.branchPred.condPredicted            604478                       # Number of conditional branches predicted
system.cpu.branchPred.condIncorrect               826                       # Number of conditional branches incorrect
system.cpu.branchPred.BTBLookups               602518                       # Number of BTB lookups
system.cpu.branchPred.BTBHits                  601442                       # Number of BTB hits
system.cpu.branchPred.BTBHitPct             99.821416                       # BTB Hit Percentage
system.cpu.branchPred.RASUsed                     555                       # Number of times the RAS was used to get a target.
system.cpu.branchPred.RASIncorrect                  2                       # Number of incorrect RAS predictions.
system.cpu.branchPred.indirectLookups             364                       # Number of indirect predictor lookups.
system.cpu.branchPred.indirectHits                173                       # Number of indirect target hits.
system.cpu.branchPred.indirectMisses              191                       # Number of indirect misses.
system.cpu.branchPred.indirectMispredicted          102                       # Number of mispredicted indirect branches.
system.cpu.dcache.demand_hits::.cpu.data     45762498                       # number of demand (read+write) hits
system.cpu.dcache.demand_hits::total         45762498                       # number of demand (read+write) hits
system.cpu.dcache.overall_hits::.cpu.data     45762533                       # number of overall hits
system.cpu.dcache.overall_hits::total        45762533                       # number of overall hits
system.cpu.dcache.demand_misses::.cpu.data      3032644                       # number of demand (read+write) misses
system.cpu.dcache.demand_misses::total        3032644                       # number of demand (read+write) misses
system.cpu.dcache.overall_misses::.cpu.data      3032662                       # number of overall misses
system.cpu.dcache.overall_misses::total       3032662                       # number of overall misses
system.cpu.dcache.demand_miss_latency::.cpu.data 304829859000                       # number of demand (read+write) miss cycles
system.cpu.dcache.demand_miss_latency::total 304829859000                       # number of demand (read+write) miss cycles
system.cpu.dcache.overall_miss_latency::.cpu.data 304829859000                       # number of overall miss cycles
system.cpu.dcache.overall_miss_latency::total 304829859000                       # number of overall miss cycles
system.cpu.dcache.demand_accesses::.cpu.data     48795142                       # number of demand (read+write) accesses
system.cpu.dcache.demand_accesses::total     48795142                       # number of demand (read+write) accesses
system.cpu.dcache.overall_accesses::.cpu.data     48795195                       # number of overall (read+write) accesses
system.cpu.dcache.overall_accesses::total     48795195                       # number of overall (read+write) accesses
system.cpu.dcache.demand_miss_rate::.cpu.data     0.062151                       # miss rate for demand accesses
system.cpu.dcache.demand_miss_rate::total     0.062151                       # miss rate for demand accesses
system.cpu.dcache.overall_miss_rate::.cpu.data     0.062151                       # miss rate for overall accesses
system.cpu.dcache.overall_miss_rate::total     0.062151                       # miss rate for overall accesses
system.cpu.dcache.demand_avg_miss_latency::.cpu.data 100516.202693                       # average overall miss latency
system.cpu.dcache.demand_avg_miss_latency::total 100516.202693                       # average overall miss latency
system.cpu.dcache.overall_avg_miss_latency::.cpu.data 100515.606091                       # average overall miss latency
system.cpu.dcache.overall_avg_miss_latency::total 100515.606091                       # average overall miss latency
system.cpu.dcache.blocked_cycles::no_mshrs            3                       # number of cycles access was blocked
system.cpu.dcache.blocked_cycles::no_targets            0                       # number of cycles access was blocked
system.cpu.dcache.blocked::no_mshrs                 1                       # number of cycles access was blocked
system.cpu.dcache.blocked::no_targets               0                       # number of cycles access was blocked
system.cpu.dcache.avg_blocked_cycles::no_mshrs            3                       # average number of cycles each access was blocked
system.cpu.dcache.avg_blocked_cycles::no_targets          nan                       # average number of cycles each access was blocked
system.cpu.dcache.writebacks::.writebacks      1516069                       # number of writebacks
system.cpu.dcache.writebacks::total           1516069                       # number of writebacks
system.cpu.dcache.demand_mshr_hits::.cpu.data      1504336                       # number of demand (read+write) MSHR hits
system.cpu.dcache.demand_mshr_hits::total      1504336                       # number of demand (read+write) MSHR hits
system.cpu.dcache.overall_mshr_hits::.cpu.data      1504336                       # number of overall MSHR hits
system.cpu.dcache.overall_mshr_hits::total      1504336                       # number of overall MSHR hits
system.cpu.dcache.demand_mshr_misses::.cpu.data      1528308                       # number of demand (read+write) MSHR misses
system.cpu.dcache.demand_mshr_misses::total      1528308                       # number of demand (read+write) MSHR misses
system.cpu.dcache.overall_mshr_misses::.cpu.data      1528323                       # number of overall MSHR misses
system.cpu.dcache.overall_mshr_misses::total      1528323                       # number of overall MSHR misses
system.cpu.dcache.demand_mshr_miss_latency::.cpu.data 157910831000                       # number of demand (read+write) MSHR miss cycles
system.cpu.dcache.demand_mshr_miss_latency::total 157910831000                       # number of demand (read+write) MSHR miss cycles
system.cpu.dcache.overall_mshr_miss_latency::.cpu.data 157912410000                       # number of overall MSHR miss cycles
system.cpu.dcache.overall_mshr_miss_latency::total 157912410000                       # number of overall MSHR miss cycles
system.cpu.dcache.demand_mshr_miss_rate::.cpu.data     0.031321                       # mshr miss rate for demand accesses
system.cpu.dcache.demand_mshr_miss_rate::total     0.031321                       # mshr miss rate for demand accesses
system.cpu.dcache.overall_mshr_miss_rate::.cpu.data     0.031321                       # mshr miss rate for overall accesses
system.cpu.dcache.overall_mshr_miss_rate::total     0.031321                       # mshr miss rate for overall accesses
system.cpu.dcache.demand_avg_mshr_miss_latency::.cpu.data 103323.957605                       # average overall mshr miss latency
system.cpu.dcache.demand_avg_mshr_miss_latency::total 103323.957605                       # average overall mshr miss latency
system.cpu.dcache.overall_avg_mshr_miss_latency::.cpu.data 103323.976672                       # average overall mshr miss latency
system.cpu.dcache.overall_avg_mshr_miss_latency::total 103323.976672                       # average overall mshr miss latency
system.cpu.dcache.replacements                1527811                       # number of replacements
system.cpu.dcache.ReadReq_hits::.cpu.data     35679247                       # number of ReadReq hits
system.cpu.dcache.ReadReq_hits::total        35679247                       # number of ReadReq hits
system.cpu.dcache.ReadReq_misses::.cpu.data        23386                       # number of ReadReq misses
system.cpu.dcache.ReadReq_misses::total         23386                       # number of ReadReq misses
system.cpu.dcache.ReadReq_miss_latency::.cpu.data   1069852000                       # number of ReadReq miss cycles
system.cpu.dcache.ReadReq_miss_latency::total   1069852000                       # number of ReadReq miss cycles
system.cpu.dcache.ReadReq_accesses::.cpu.data     35702633                       # number of ReadReq accesses(hits+misses)
system.cpu.dcache.ReadReq_accesses::total     35702633                       # number of ReadReq accesses(hits+misses)
system.cpu.dcache.ReadReq_miss_rate::.cpu.data     0.000655                       # miss rate for ReadReq accesses
system.cpu.dcache.ReadReq_miss_rate::total     0.000655                       # miss rate for ReadReq accesses
system.cpu.dcache.ReadReq_avg_miss_latency::.cpu.data 45747.541264                       # average ReadReq miss latency
system.cpu.dcache.ReadReq_avg_miss_latency::total 45747.541264                       # average ReadReq miss latency
system.cpu.dcache.ReadReq_mshr_hits::.cpu.data            8                       # number of ReadReq MSHR hits
system.cpu.dcache.ReadReq_mshr_hits::total            8                       # number of ReadReq MSHR hits
system.cpu.dcache.ReadReq_mshr_misses::.cpu.data        23378                       # number of ReadReq MSHR misses
system.cpu.dcache.ReadReq_mshr_misses::total        23378                       # number of ReadReq MSHR misses
system.cpu.dcache.ReadReq_mshr_miss_latency::.cpu.data   1022359000                       # number of ReadReq MSHR miss cycles
system.cpu.dcache.ReadReq_mshr_miss_latency::total   1022359000                       # number of ReadReq MSHR miss cycles
system.cpu.dcache.ReadReq_mshr_miss_rate::.cpu.data     0.000655                       # mshr miss rate for ReadReq accesses
system.cpu.dcache.ReadReq_mshr_miss_rate::total     0.000655                       # mshr miss rate for ReadReq accesses
system.cpu.dcache.ReadReq_avg_mshr_miss_latency::.cpu.data 43731.670802                       # average ReadReq mshr miss latency
system.cpu.dcache.ReadReq_avg_mshr_miss_latency::total 43731.670802                       # average ReadReq mshr miss latency
system.cpu.dcache.WriteReq_hits::.cpu.data     10083251                       # number of WriteReq hits
system.cpu.dcache.WriteReq_hits::total       10083251                       # number of WriteReq hits
system.cpu.dcache.WriteReq_misses::.cpu.data      3009258                       # number of WriteReq misses
system.cpu.dcache.WriteReq_misses::total      3009258                       # number of WriteReq misses
system.cpu.dcache.WriteReq_miss_latency::.cpu.data 303760007000                       # number of WriteReq miss cycles
system.cpu.dcache.WriteReq_miss_latency::total 303760007000                       # number of WriteReq miss cycles
system.cpu.dcache.WriteReq_accesses::.cpu.data     13092509                       # number of WriteReq accesses(hits+misses)
system.cpu.dcache.WriteReq_accesses::total     13092509                       # number of WriteReq accesses(hits+misses)
system.cpu.dcache.WriteReq_miss_rate::.cpu.data     0.229846                       # miss rate for WriteReq accesses
system.cpu.dcache.WriteReq_miss_rate::total     0.229846                       # miss rate for WriteReq accesses
system.cpu.dcache.WriteReq_avg_miss_latency::.cpu.data 100941.829182                       # average WriteReq miss latency
system.cpu.dcache.WriteReq_avg_miss_latency::total 100941.829182                       # average WriteReq miss latency
system.cpu.dcache.WriteReq_mshr_hits::.cpu.data      1504328                       # number of WriteReq MSHR hits
system.cpu.dcache.WriteReq_mshr_hits::total      1504328                       # number of WriteReq MSHR hits
system.cpu.dcache.WriteReq_mshr_misses::.cpu.data      1504930                       # number of WriteReq MSHR misses
system.cpu.dcache.WriteReq_mshr_misses::total      1504930                       # number of WriteReq MSHR misses
system.cpu.dcache.WriteReq_mshr_miss_latency::.cpu.data 156888472000                       # number of WriteReq MSHR miss cycles
system.cpu.dcache.WriteReq_mshr_miss_latency::total 156888472000                       # number of WriteReq MSHR miss cycles
system.cpu.dcache.WriteReq_mshr_miss_rate::.cpu.data     0.114946                       # mshr miss rate for WriteReq accesses
system.cpu.dcache.WriteReq_mshr_miss_rate::total     0.114946                       # mshr miss rate for WriteReq accesses
system.cpu.dcache.WriteReq_avg_mshr_miss_latency::.cpu.data 104249.680716                       # average WriteReq mshr miss latency
system.cpu.dcache.WriteReq_avg_mshr_miss_latency::total 104249.680716                       # average WriteReq mshr miss latency
system.cpu.dcache.SoftPFReq_hits::.cpu.data           35                       # number of SoftPFReq hits
system.cpu.dcache.SoftPFReq_hits::total            35                       # number of SoftPFReq hits
system.cpu.dcache.SoftPFReq_misses::.cpu.data           18                       # number of SoftPFReq misses
system.cpu.dcache.SoftPFReq_misses::total           18                       # number of SoftPFReq misses
system.cpu.dcache.SoftPFReq_accesses::.cpu.data           53                       # number of SoftPFReq accesses(hits+misses)
system.cpu.dcache.SoftPFReq_accesses::total           53                       # number of SoftPFReq accesses(hits+misses)
system.cpu.dcache.SoftPFReq_miss_rate::.cpu.data     0.339623                       # miss rate for SoftPFReq accesses
system.cpu.dcache.SoftPFReq_miss_rate::total     0.339623                       # miss rate for SoftPFReq accesses
system.cpu.dcache.SoftPFReq_mshr_misses::.cpu.data           15                       # number of SoftPFReq MSHR misses
system.cpu.dcache.SoftPFReq_mshr_misses::total           15                       # number of SoftPFReq MSHR misses
system.cpu.dcache.SoftPFReq_mshr_miss_latency::.cpu.data      1579000                       # number of SoftPFReq MSHR miss cycles
system.cpu.dcache.SoftPFReq_mshr_miss_latency::total      1579000                       # number of SoftPFReq MSHR miss cycles
system.cpu.dcache.SoftPFReq_mshr_miss_rate::.cpu.data     0.283019                       # mshr miss rate for SoftPFReq accesses
system.cpu.dcache.SoftPFReq_mshr_miss_rate::total     0.283019                       # mshr miss rate for SoftPFReq accesses
system.cpu.dcache.SoftPFReq_avg_mshr_miss_latency::.cpu.data 105266.666667                       # average SoftPFReq mshr miss latency
system.cpu.dcache.SoftPFReq_avg_mshr_miss_latency::total 105266.666667                       # average SoftPFReq mshr miss latency
system.cpu.dcache.LoadLockedReq_hits::.cpu.data           14                       # number of LoadLockedReq hits
system.cpu.dcache.LoadLockedReq_hits::total           14                       # number of LoadLockedReq hits
system.cpu.dcache.LoadLockedReq_accesses::.cpu.data           14                       # number of LoadLockedReq accesses(hits+misses)
system.cpu.dcache.LoadLockedReq_accesses::total           14                       # number of LoadLockedReq accesses(hits+misses)
system.cpu.dcache.StoreCondReq_hits::.cpu.data           14                       # number of StoreCondReq hits
system.cpu.dcache.StoreCondReq_hits::total           14                       # number of StoreCondReq hits
system.cpu.dcache.StoreCondReq_accesses::.cpu.data           14                       # number of StoreCondReq accesses(hits+misses)
system.cpu.dcache.StoreCondReq_accesses::total           14                       # number of StoreCondReq accesses(hits+misses)
system.cpu.dcache.power_state.pwrStateResidencyTicks::UNDEFINED 265049145000                       # Cumulative time (in ticks) in various power states
system.cpu.dcache.tags.tagsinuse           511.794801                       # Cycle average of tags in use
system.cpu.dcache.tags.total_refs            47290884                       # Total number of references to valid blocks.
system.cpu.dcache.tags.sampled_refs           1528323                       # Sample count of references to valid blocks.
system.cpu.dcache.tags.avg_refs             30.942990                       # Average number of references to valid blocks.
system.cpu.dcache.tags.warmup_cycle            223000                       # Cycle when the warmup percentage was hit.
system.cpu.dcache.tags.occ_blocks::.cpu.data   511.794801                       # Average occupied blocks per requestor
system.cpu.dcache.tags.occ_percent::.cpu.data     0.999599                       # Average percentage of cache occupancy
system.cpu.dcache.tags.occ_percent::total     0.999599                       # Average percentage of cache occupancy
system.cpu.dcache.tags.occ_task_id_blocks::1024          512                       # Occupied blocks per task id
system.cpu.dcache.tags.age_task_id_blocks_1024::0           57                       # Occupied blocks per task id
system.cpu.dcache.tags.age_task_id_blocks_1024::1          455                       # Occupied blocks per task id
system.cpu.dcache.tags.occ_task_id_percent::1024            1                       # Percentage of cache occupancy per task id
system.cpu.dcache.tags.tag_accesses          50323546                       # Number of tag accesses
system.cpu.dcache.tags.data_accesses         50323546                       # Number of data accesses
system.cpu.dcache.tags.power_state.pwrStateResidencyTicks::UNDEFINED 265049145000                       # Cumulative time (in ticks) in various power states
system.cpu.dtb.instHits                             0                       # ITB inst hits
system.cpu.dtb.instMisses                           0                       # ITB inst misses
system.cpu.dtb.readHits                             0                       # DTB read hits
system.cpu.dtb.readMisses                           0                       # DTB read misses
system.cpu.dtb.writeHits                            0                       # DTB write hits
system.cpu.dtb.writeMisses                          0                       # DTB write misses
system.cpu.dtb.inserts                              0                       # Number of times an entry is inserted into the TLB
system.cpu.dtb.flushTlb                             0                       # Number of times complete TLB was flushed
system.cpu.dtb.flushTlbMva                          0                       # Number of times TLB was flushed by MVA
system.cpu.dtb.flushTlbMvaAsid                      0                       # Number of times TLB was flushed by MVA & ASID
system.cpu.dtb.flushTlbAsid                         0                       # Number of times TLB was flushed by ASID
system.cpu.dtb.flushedEntries                       0                       # Number of entries that have been flushed from TLB
system.cpu.dtb.alignFaults                          0                       # Number of TLB faults due to alignment restrictions
system.cpu.dtb.prefetchFaults                       0                       # Number of TLB faults due to prefetch
system.cpu.dtb.domainFaults                         0                       # Number of TLB faults due to domain restrictions
system.cpu.dtb.permsFaults                          0                       # Number of TLB faults due to permissions restrictions
system.cpu.dtb.readAccesses                         0                       # DTB read accesses
system.cpu.dtb.writeAccesses                        0                       # DTB write accesses
system.cpu.dtb.instAccesses                         0                       # ITB inst accesses
system.cpu.dtb.hits                                 0                       # Total TLB (inst and data) hits
system.cpu.dtb.misses                               0                       # Total TLB (inst and data) misses
system.cpu.dtb.accesses                             0                       # Total TLB (inst and data) accesses
system.cpu.dtb.stage2_mmu.stage2_tlb.instHits            0                       # ITB inst hits
system.cpu.dtb.stage2_mmu.stage2_tlb.instMisses            0                       # ITB inst misses
system.cpu.dtb.stage2_mmu.stage2_tlb.readHits            0                       # DTB read hits
system.cpu.dtb.stage2_mmu.stage2_tlb.readMisses            0                       # DTB read misses
system.cpu.dtb.stage2_mmu.stage2_tlb.writeHits            0                       # DTB write hits
system.cpu.dtb.stage2_mmu.stage2_tlb.writeMisses            0                       # DTB write misses
system.cpu.dtb.stage2_mmu.stage2_tlb.inserts            0                       # Number of times an entry is inserted into the TLB
system.cpu.dtb.stage2_mmu.stage2_tlb.flushTlb            0                       # Number of times complete TLB was flushed
system.cpu.dtb.stage2_mmu.stage2_tlb.flushTlbMva            0                       # Number of times TLB was flushed by MVA
system.cpu.dtb.stage2_mmu.stage2_tlb.flushTlbMvaAsid            0                       # Number of times TLB was flushed by MVA & ASID
system.cpu.dtb.stage2_mmu.stage2_tlb.flushTlbAsid            0                       # Number of times TLB was flushed by ASID
system.cpu.dtb.stage2_mmu.stage2_tlb.flushedEntries            0                       # Number of entries that have been flushed from TLB
system.cpu.dtb.stage2_mmu.stage2_tlb.alignFaults            0                       # Number of TLB faults due to alignment restrictions
system.cpu.dtb.stage2_mmu.stage2_tlb.prefetchFaults            0                       # Number of TLB faults due to prefetch
system.cpu.dtb.stage2_mmu.stage2_tlb.domainFaults            0                       # Number of TLB faults due to domain restrictions
system.cpu.dtb.stage2_mmu.stage2_tlb.permsFaults            0                       # Number of TLB faults due to permissions restrictions
system.cpu.dtb.stage2_mmu.stage2_tlb.readAccesses            0                       # DTB read accesses
system.cpu.dtb.stage2_mmu.stage2_tlb.writeAccesses            0                       # DTB write accesses
system.cpu.dtb.stage2_mmu.stage2_tlb.instAccesses            0                       # ITB inst accesses
system.cpu.dtb.stage2_mmu.stage2_tlb.hits            0                       # Total TLB (inst and data) hits
system.cpu.dtb.stage2_mmu.stage2_tlb.misses            0                       # Total TLB (inst and data) misses
system.cpu.dtb.stage2_mmu.stage2_tlb.accesses            0                       # Total TLB (inst and data) accesses
system.cpu.dtb.stage2_mmu.stage2_tlb.walker.walks            0                       # Table walker walks requested
system.cpu.dtb.stage2_mmu.stage2_tlb.walker.requestOrigin_Requested::Data            0                       # Table walker requests started/completed, data/inst
system.cpu.dtb.stage2_mmu.stage2_tlb.walker.requestOrigin_Requested::Inst            0                       # Table walker requests started/completed, data/inst
system.cpu.dtb.stage2_mmu.stage2_tlb.walker.requestOrigin_Requested::total            0                       # Table walker requests started/completed, data/inst
system.cpu.dtb.stage2_mmu.stage2_tlb.walker.requestOrigin_Completed::Data            0                       # Table walker requests started/completed, data/inst
system.cpu.dtb.stage2_mmu.stage2_tlb.walker.requestOrigin_Completed::Inst            0                       # Table walker requests started/completed, data/inst
system.cpu.dtb.stage2_mmu.stage2_tlb.walker.requestOrigin_Completed::total            0                       # Table walker requests started/completed, data/inst
system.cpu.dtb.stage2_mmu.stage2_tlb.walker.requestOrigin::total            0                       # Table walker requests started/completed, data/inst
system.cpu.dtb.stage2_mmu.stage2_tlb.walker.power_state.pwrStateResidencyTicks::UNDEFINED 265049145000                       # Cumulative time (in ticks) in various power states
system.cpu.dtb.walker.walks                         0                       # Table walker walks requested
system.cpu.dtb.walker.requestOrigin_Requested::Data            0                       # Table walker requests started/completed, data/inst
system.cpu.dtb.walker.requestOrigin_Requested::Inst            0                       # Table walker requests started/completed, data/inst
system.cpu.dtb.walker.requestOrigin_Requested::total            0                       # Table walker requests started/completed, data/inst
system.cpu.dtb.walker.requestOrigin_Completed::Data            0                       # Table walker requests started/completed, data/inst
system.cpu.dtb.walker.requestOrigin_Completed::Inst            0                       # Table walker requests started/completed, data/inst
system.cpu.dtb.walker.requestOrigin_Completed::total            0                       # Table walker requests started/completed, data/inst
system.cpu.dtb.walker.requestOrigin::total            0                       # Table walker requests started/completed, data/inst
system.cpu.dtb.walker.power_state.pwrStateResidencyTicks::UNDEFINED 265049145000                       # Cumulative time (in ticks) in various power states
system.cpu.fetch2.intInstructions            49669601                       # Number of integer instructions successfully decoded
system.cpu.fetch2.fpInstructions                    0                       # Number of floating point instructions successfully decoded
system.cpu.fetch2.vecInstructions                   0                       # Number of SIMD instructions successfully decoded
system.cpu.fetch2.loadInstructions           37092218                       # Number of memory load instructions successfully decoded
system.cpu.fetch2.storeInstructions          13161070                       # Number of memory store instructions successfully decoded
system.cpu.fetch2.amoInstructions                   0                       # Number of memory atomic instructions successfully decoded
system.cpu.icache.demand_hits::.cpu.inst      6045344                       # number of demand (read+write) hits
system.cpu.icache.demand_hits::total          6045344                       # number of demand (read+write) hits
system.cpu.icache.overall_hits::.cpu.inst      6045344                       # number of overall hits
system.cpu.icache.overall_hits::total         6045344                       # number of overall hits
system.cpu.icache.demand_misses::.cpu.inst         1039                       # number of demand (read+write) misses
system.cpu.icache.demand_misses::total           1039                       # number of demand (read+write) misses
system.cpu.icache.overall_misses::.cpu.inst         1039                       # number of overall misses
system.cpu.icache.overall_misses::total          1039                       # number of overall misses
system.cpu.icache.demand_miss_latency::.cpu.inst     64941000                       # number of demand (read+write) miss cycles
system.cpu.icache.demand_miss_latency::total     64941000                       # number of demand (read+write) miss cycles
system.cpu.icache.overall_miss_latency::.cpu.inst     64941000                       # number of overall miss cycles
system.cpu.icache.overall_miss_latency::total     64941000                       # number of overall miss cycles
system.cpu.icache.demand_accesses::.cpu.inst      6046383                       # number of demand (read+write) accesses
system.cpu.icache.demand_accesses::total      6046383                       # number of demand (read+write) accesses
system.cpu.icache.overall_accesses::.cpu.inst      6046383                       # number of overall (read+write) accesses
system.cpu.icache.overall_accesses::total      6046383                       # number of overall (read+write) accesses
system.cpu.icache.demand_miss_rate::.cpu.inst     0.000172                       # miss rate for demand accesses
system.cpu.icache.demand_miss_rate::total     0.000172                       # miss rate for demand accesses
system.cpu.icache.overall_miss_rate::.cpu.inst     0.000172                       # miss rate for overall accesses
system.cpu.icache.overall_miss_rate::total     0.000172                       # miss rate for overall accesses
system.cpu.icache.demand_avg_miss_latency::.cpu.inst 62503.368624                       # average overall miss latency
system.cpu.icache.demand_avg_miss_latency::total 62503.368624                       # average overall miss latency
system.cpu.icache.overall_avg_miss_latency::.cpu.inst 62503.368624                       # average overall miss latency
system.cpu.icache.overall_avg_miss_latency::total 62503.368624                       # average overall miss latency
system.cpu.icache.blocked_cycles::no_mshrs            0                       # number of cycles access was blocked
system.cpu.icache.blocked_cycles::no_targets            0                       # number of cycles access was blocked
system.cpu.icache.blocked::no_mshrs                 0                       # number of cycles access was blocked
system.cpu.icache.blocked::no_targets               0                       # number of cycles access was blocked
system.cpu.icache.avg_blocked_cycles::no_mshrs          nan                       # average number of cycles each access was blocked
system.cpu.icache.avg_blocked_cycles::no_targets          nan                       # average number of cycles each access was blocked
system.cpu.icache.writebacks::.writebacks          912                       # number of writebacks
system.cpu.icache.writebacks::total               912                       # number of writebacks
system.cpu.icache.demand_mshr_misses::.cpu.inst         1039                       # number of demand (read+write) MSHR misses
system.cpu.icache.demand_mshr_misses::total         1039                       # number of demand (read+write) MSHR misses
system.cpu.icache.overall_mshr_misses::.cpu.inst         1039                       # number of overall MSHR misses
system.cpu.icache.overall_mshr_misses::total         1039                       # number of overall MSHR misses
system.cpu.icache.demand_mshr_miss_latency::.cpu.inst     62863000                       # number of demand (read+write) MSHR miss cycles
system.cpu.icache.demand_mshr_miss_latency::total     62863000                       # number of demand (read+write) MSHR miss cycles
system.cpu.icache.overall_mshr_miss_latency::.cpu.inst     62863000                       # number of overall MSHR miss cycles
system.cpu.icache.overall_mshr_miss_latency::total     62863000                       # number of overall MSHR miss cycles
system.cpu.icache.demand_mshr_miss_rate::.cpu.inst     0.000172                       # mshr miss rate for demand accesses
system.cpu.icache.demand_mshr_miss_rate::total     0.000172                       # mshr miss rate for demand accesses
system.cpu.icache.overall_mshr_miss_rate::.cpu.inst     0.000172                       # mshr miss rate for overall accesses
system.cpu.icache.overall_mshr_miss_rate::total     0.000172                       # mshr miss rate for overall accesses
system.cpu.icache.demand_avg_mshr_miss_latency::.cpu.inst 60503.368624                       # average overall mshr miss latency
system.cpu.icache.demand_avg_mshr_miss_latency::total 60503.368624                       # average overall mshr miss latency
system.cpu.icache.overall_avg_mshr_miss_latency::.cpu.inst 60503.368624                       # average overall mshr miss latency
system.cpu.icache.overall_avg_mshr_miss_latency::total 60503.368624                       # average overall mshr miss latency
system.cpu.icache.replacements                    912                       # number of replacements
system.cpu.icache.ReadReq_hits::.cpu.inst      6045344                       # number of ReadReq hits
system.cpu.icache.ReadReq_hits::total         6045344                       # number of ReadReq hits
system.cpu.icache.ReadReq_misses::.cpu.inst         1039                       # number of ReadReq misses
system.cpu.icache.ReadReq_misses::total          1039                       # number of ReadReq misses
system.cpu.icache.ReadReq_miss_latency::.cpu.inst     64941000                       # number of ReadReq miss cycles
system.cpu.icache.ReadReq_miss_latency::total     64941000                       # number of ReadReq miss cycles
system.cpu.icache.ReadReq_accesses::.cpu.inst      6046383                       # number of ReadReq accesses(hits+misses)
system.cpu.icache.ReadReq_accesses::total      6046383                       # number of ReadReq accesses(hits+misses)
system.cpu.icache.ReadReq_miss_rate::.cpu.inst     0.000172                       # miss rate for ReadReq accesses
system.cpu.icache.ReadReq_miss_rate::total     0.000172                       # miss rate for ReadReq accesses
system.cpu.icache.ReadReq_avg_miss_latency::.cpu.inst 62503.368624                       # average ReadReq miss latency
system.cpu.icache.ReadReq_avg_miss_latency::total 62503.368624                       # average ReadReq miss latency
system.cpu.icache.ReadReq_mshr_misses::.cpu.inst         1039                       # number of ReadReq MSHR misses
system.cpu.icache.ReadReq_mshr_misses::total         1039                       # number of ReadReq MSHR misses
system.cpu.icache.ReadReq_mshr_miss_latency::.cpu.inst     62863000                       # number of ReadReq MSHR miss cycles
system.cpu.icache.ReadReq_mshr_miss_latency::total     62863000                       # number of ReadReq MSHR miss cycles
system.cpu.icache.ReadReq_mshr_miss_rate::.cpu.inst     0.000172                       # mshr miss rate for ReadReq accesses
system.cpu.icache.ReadReq_mshr_miss_rate::total     0.000172                       # mshr miss rate for ReadReq accesses
system.cpu.icache.ReadReq_avg_mshr_miss_latency::.cpu.inst 60503.368624                       # average ReadReq mshr miss latency
system.cpu.icache.ReadReq_avg_mshr_miss_latency::total 60503.368624                       # average ReadReq mshr miss latency
system.cpu.icache.power_state.pwrStateResidencyTicks::UNDEFINED 265049145000                       # Cumulative time (in ticks) in various power states
system.cpu.icache.tags.tagsinuse           126.989475                       # Cycle average of tags in use
system.cpu.icache.tags.total_refs             6046383                       # Total number of references to valid blocks.
system.cpu.icache.tags.sampled_refs              1039                       # Sample count of references to valid blocks.
system.cpu.icache.tags.avg_refs           5819.425409                       # Average number of references to valid blocks.
system.cpu.icache.tags.warmup_cycle            108000                       # Cycle when the warmup percentage was hit.
system.cpu.icache.tags.occ_blocks::.cpu.inst   126.989475                       # Average occupied blocks per requestor
system.cpu.icache.tags.occ_percent::.cpu.inst     0.992105                       # Average percentage of cache occupancy
system.cpu.icache.tags.occ_percent::total     0.992105                       # Average percentage of cache occupancy
system.cpu.icache.tags.occ_task_id_blocks::1024          127                       # Occupied blocks per task id
system.cpu.icache.tags.age_task_id_blocks_1024::4          127                       # Occupied blocks per task id
system.cpu.icache.tags.occ_task_id_percent::1024     0.992188                       # Percentage of cache occupancy per task id
system.cpu.icache.tags.tag_accesses           6047422                       # Number of tag accesses
system.cpu.icache.tags.data_accesses          6047422                       # Number of data accesses
system.cpu.icache.tags.power_state.pwrStateResidencyTicks::UNDEFINED 265049145000                       # Cumulative time (in ticks) in various power states
system.cpu.itb.instHits                             0                       # ITB inst hits
system.cpu.itb.instMisses                           0                       # ITB inst misses
system.cpu.itb.readHits                             0                       # DTB read hits
system.cpu.itb.readMisses                           0                       # DTB read misses
system.cpu.itb.writeHits                            0                       # DTB write hits
system.cpu.itb.writeMisses                          0                       # DTB write misses
system.cpu.itb.inserts                              0                       # Number of times an entry is inserted into the TLB
system.cpu.itb.flushTlb                             0                       # Number of times complete TLB was flushed
system.cpu.itb.flushTlbMva                          0                       # Number of times TLB was flushed by MVA
system.cpu.itb.flushTlbMvaAsid                      0                       # Number of times TLB was flushed by MVA & ASID
system.cpu.itb.flushTlbAsid                         0                       # Number of times TLB was flushed by ASID
system.cpu.itb.flushedEntries                       0                       # Number of entries that have been flushed from TLB
system.cpu.itb.alignFaults                          0                       # Number of TLB faults due to alignment restrictions
system.cpu.itb.prefetchFaults                       0                       # Number of TLB faults due to prefetch
system.cpu.itb.domainFaults                         0                       # Number of TLB faults due to domain restrictions
system.cpu.itb.permsFaults                          0                       # Number of TLB faults due to permissions restrictions
system.cpu.itb.readAccesses                         0                       # DTB read accesses
system.cpu.itb.writeAccesses                        0                       # DTB write accesses
system.cpu.itb.instAccesses                         0                       # ITB inst accesses
system.cpu.itb.hits                                 0                       # Total TLB (inst and data) hits
system.cpu.itb.misses                               0                       # Total TLB (inst and data) misses
system.cpu.itb.accesses                             0                       # Total TLB (inst and data) accesses
system.cpu.itb.stage2_mmu.stage2_tlb.instHits            0                       # ITB inst hits
system.cpu.itb.stage2_mmu.stage2_tlb.instMisses            0                       # ITB inst misses
system.cpu.itb.stage2_mmu.stage2_tlb.readHits            0                       # DTB read hits
system.cpu.itb.stage2_mmu.stage2_tlb.readMisses            0                       # DTB read misses
system.cpu.itb.stage2_mmu.stage2_tlb.writeHits            0                       # DTB write hits
system.cpu.itb.stage2_mmu.stage2_tlb.writeMisses            0                       # DTB write misses
system.cpu.itb.stage2_mmu.stage2_tlb.inserts            0                       # Number of times an entry is inserted into the TLB
system.cpu.itb.stage2_mmu.stage2_tlb.flushTlb            0                       # Number of times complete TLB was flushed
system.cpu.itb.stage2_mmu.stage2_tlb.flushTlbMva            0                       # Number of times TLB was flushed by MVA
system.cpu.itb.stage2_mmu.stage2_tlb.flushTlbMvaAsid            0                       # Number of times TLB was flushed by MVA & ASID
system.cpu.itb.stage2_mmu.stage2_tlb.flushTlbAsid            0                       # Number of times TLB was flushed by ASID
system.cpu.itb.stage2_mmu.stage2_tlb.flushedEntries            0                       # Number of entries that have been flushed from TLB
system.cpu.itb.stage2_mmu.stage2_tlb.alignFaults            0                       # Number of TLB faults due to alignment restrictions
system.cpu.itb.stage2_mmu.stage2_tlb.prefetchFaults            0                       # Number of TLB faults due to prefetch
system.cpu.itb.stage2_mmu.stage2_tlb.domainFaults            0                       # Number of TLB faults due to domain restrictions
system.cpu.itb.stage2_mmu.stage2_tlb.permsFaults            0                       # Number of TLB faults due to permissions restrictions
system.cpu.itb.stage2_mmu.stage2_tlb.readAccesses            0                       # DTB read accesses
system.cpu.itb.stage2_mmu.stage2_tlb.writeAccesses            0                       # DTB write accesses
system.cpu.itb.stage2_mmu.stage2_tlb.instAccesses            0                       # ITB inst accesses
system.cpu.itb.stage2_mmu.stage2_tlb.hits            0                       # Total TLB (inst and data) hits
system.cpu.itb.stage2_mmu.stage2_tlb.misses            0                       # Total TLB (inst and data) misses
system.cpu.itb.stage2_mmu.stage2_tlb.accesses            0                       # Total TLB (inst and data) accesses
system.cpu.itb.stage2_mmu.stage2_tlb.walker.walks            0                       # Table walker walks requested
system.cpu.itb.stage2_mmu.stage2_tlb.walker.requestOrigin_Requested::Data            0                       # Table walker requests started/completed, data/inst
system.cpu.itb.stage2_mmu.stage2_tlb.walker.requestOrigin_Requested::Inst            0                       # Table walker requests started/completed, data/inst
system.cpu.itb.stage2_mmu.stage2_tlb.walker.requestOrigin_Requested::total            0                       # Table walker requests started/completed, data/inst
system.cpu.itb.stage2_mmu.stage2_tlb.walker.requestOrigin_Completed::Data            0                       # Table walker requests started/completed, data/inst
system.cpu.itb.stage2_mmu.stage2_tlb.walker.requestOrigin_Completed::Inst            0                       # Table walker requests started/completed, data/inst
system.cpu.itb.stage2_mmu.stage2_tlb.walker.requestOrigin_Completed::total            0                       # Table walker requests started/completed, data/inst
system.cpu.itb.stage2_mmu.stage2_tlb.walker.requestOrigin::total            0                       # Table walker requests started/completed, data/inst
system.cpu.itb.stage2_mmu.stage2_tlb.walker.power_state.pwrStateResidencyTicks::UNDEFINED 265049145000                       # Cumulative time (in ticks) in various power states
system.cpu.itb.walker.walks                         0                       # Table walker walks requested
system.cpu.itb.walker.requestOrigin_Requested::Data            0                       # Table walker requests started/completed, data/inst
system.cpu.itb.walker.requestOrigin_Requested::Inst            0                       # Table walker requests started/completed, data/inst
system.cpu.itb.walker.requestOrigin_Requested::total            0                       # Table walker requests started/completed, data/inst
system.cpu.itb.walker.requestOrigin_Completed::Data            0                       # Table walker requests started/completed, data/inst
system.cpu.itb.walker.requestOrigin_Completed::Inst            0                       # Table walker requests started/completed, data/inst
system.cpu.itb.walker.requestOrigin_Completed::total            0                       # Table walker requests started/completed, data/inst
system.cpu.itb.walker.requestOrigin::total            0                       # Table walker requests started/completed, data/inst
system.cpu.itb.walker.power_state.pwrStateResidencyTicks::UNDEFINED 265049145000                       # Cumulative time (in ticks) in various power states
system.cpu.power_state.pwrStateResidencyTicks::ON 265049145000                       # Cumulative time (in ticks) in various power states
system.cpu.thread_0.numInsts                100000000                       # Number of Instructions committed
system.cpu.thread_0.numOps                  100003676                       # Number of Ops committed
system.cpu.thread_0.numMemRefs                      0                       # Number of Memory References
system.cpu_clk_domain.clock                      1000                       # Clock period in ticks
system.cpu_voltage_domain.voltage                   1                       # Voltage in Volts
system.l2.demand_hits::.cpu.inst                  543                       # number of demand (read+write) hits
system.l2.demand_hits::.cpu.data                40706                       # number of demand (read+write) hits
system.l2.demand_hits::total                    41249                       # number of demand (read+write) hits
system.l2.overall_hits::.cpu.inst                 543                       # number of overall hits
system.l2.overall_hits::.cpu.data               40706                       # number of overall hits
system.l2.overall_hits::total                   41249                       # number of overall hits
system.l2.demand_misses::.cpu.inst                496                       # number of demand (read+write) misses
system.l2.demand_misses::.cpu.data            1487617                       # number of demand (read+write) misses
system.l2.demand_misses::total                1488113                       # number of demand (read+write) misses
system.l2.overall_misses::.cpu.inst               496                       # number of overall misses
system.l2.overall_misses::.cpu.data           1487617                       # number of overall misses
system.l2.overall_misses::total               1488113                       # number of overall misses
system.l2.demand_miss_latency::.cpu.inst     48105000                       # number of demand (read+write) miss cycles
system.l2.demand_miss_latency::.cpu.data 151444204000                       # number of demand (read+write) miss cycles
system.l2.demand_miss_latency::total     151492309000                       # number of demand (read+write) miss cycles
system.l2.overall_miss_latency::.cpu.inst     48105000                       # number of overall miss cycles
system.l2.overall_miss_latency::.cpu.data 151444204000                       # number of overall miss cycles
system.l2.overall_miss_latency::total    151492309000                       # number of overall miss cycles
system.l2.demand_accesses::.cpu.inst             1039                       # number of demand (read+write) accesses
system.l2.demand_accesses::.cpu.data          1528323                       # number of demand (read+write) accesses
system.l2.demand_accesses::total              1529362                       # number of demand (read+write) accesses
system.l2.overall_accesses::.cpu.inst            1039                       # number of overall (read+write) accesses
system.l2.overall_accesses::.cpu.data         1528323                       # number of overall (read+write) accesses
system.l2.overall_accesses::total             1529362                       # number of overall (read+write) accesses
system.l2.demand_miss_rate::.cpu.inst        0.477382                       # miss rate for demand accesses
system.l2.demand_miss_rate::.cpu.data        0.973366                       # miss rate for demand accesses
system.l2.demand_miss_rate::total            0.973029                       # miss rate for demand accesses
system.l2.overall_miss_rate::.cpu.inst       0.477382                       # miss rate for overall accesses
system.l2.overall_miss_rate::.cpu.data       0.973366                       # miss rate for overall accesses
system.l2.overall_miss_rate::total           0.973029                       # miss rate for overall accesses
system.l2.demand_avg_miss_latency::.cpu.inst 96985.887097                       # average overall miss latency
system.l2.demand_avg_miss_latency::.cpu.data 101803.222200                       # average overall miss latency
system.l2.demand_avg_miss_latency::total 101801.616544                       # average overall miss latency
system.l2.overall_avg_miss_latency::.cpu.inst 96985.887097                       # average overall miss latency
system.l2.overall_avg_miss_latency::.cpu.data 101803.222200                       # average overall miss latency
system.l2.overall_avg_miss_latency::total 101801.616544                       # average overall miss latency
system.l2.blocked_cycles::no_mshrs                  0                       # number of cycles access was blocked
system.l2.blocked_cycles::no_targets                0                       # number of cycles access was blocked
system.l2.blocked::no_mshrs                         0                       # number of cycles access was blocked
system.l2.blocked::no_targets                       0                       # number of cycles access was blocked
system.l2.avg_blocked_cycles::no_mshrs            nan                       # average number of cycles each access was blocked
system.l2.avg_blocked_cycles::no_targets          nan                       # average number of cycles each access was blocked
system.l2.writebacks::.writebacks             1479326                       # number of writebacks
system.l2.writebacks::total                   1479326                       # number of writebacks
system.l2.demand_mshr_hits::.cpu.inst               1                       # number of demand (read+write) MSHR hits
system.l2.demand_mshr_hits::.cpu.data               3                       # number of demand (read+write) MSHR hits
system.l2.demand_mshr_hits::total                   4                       # number of demand (read+write) MSHR hits
system.l2.overall_mshr_hits::.cpu.inst              1                       # number of overall MSHR hits
system.l2.overall_mshr_hits::.cpu.data              3                       # number of overall MSHR hits
system.l2.overall_mshr_hits::total                  4                       # number of overall MSHR hits
system.l2.demand_mshr_misses::.cpu.inst           495                       # number of demand (read+write) MSHR misses
system.l2.demand_mshr_misses::.cpu.data       1487614                       # number of demand (read+write) MSHR misses
system.l2.demand_mshr_misses::total           1488109                       # number of demand (read+write) MSHR misses
system.l2.overall_mshr_misses::.cpu.inst          495                       # number of overall MSHR misses
system.l2.overall_mshr_misses::.cpu.data      1487614                       # number of overall MSHR misses
system.l2.overall_mshr_misses::total          1488109                       # number of overall MSHR misses
system.l2.demand_mshr_miss_latency::.cpu.inst     38118000                       # number of demand (read+write) MSHR miss cycles
system.l2.demand_mshr_miss_latency::.cpu.data 121691668000                       # number of demand (read+write) MSHR miss cycles
system.l2.demand_mshr_miss_latency::total 121729786000                       # number of demand (read+write) MSHR miss cycles
system.l2.overall_mshr_miss_latency::.cpu.inst     38118000                       # number of overall MSHR miss cycles
system.l2.overall_mshr_miss_latency::.cpu.data 121691668000                       # number of overall MSHR miss cycles
system.l2.overall_mshr_miss_latency::total 121729786000                       # number of overall MSHR miss cycles
system.l2.demand_mshr_miss_rate::.cpu.inst     0.476420                       # mshr miss rate for demand accesses
system.l2.demand_mshr_miss_rate::.cpu.data     0.973364                       # mshr miss rate for demand accesses
system.l2.demand_mshr_miss_rate::total       0.973026                       # mshr miss rate for demand accesses
system.l2.overall_mshr_miss_rate::.cpu.inst     0.476420                       # mshr miss rate for overall accesses
system.l2.overall_mshr_miss_rate::.cpu.data     0.973364                       # mshr miss rate for overall accesses
system.l2.overall_mshr_miss_rate::total      0.973026                       # mshr miss rate for overall accesses
system.l2.demand_avg_mshr_miss_latency::.cpu.inst 77006.060606                       # average overall mshr miss latency
system.l2.demand_avg_mshr_miss_latency::.cpu.data 81803.255414                       # average overall mshr miss latency
system.l2.demand_avg_mshr_miss_latency::total 81801.659690                       # average overall mshr miss latency
system.l2.overall_avg_mshr_miss_latency::.cpu.inst 77006.060606                       # average overall mshr miss latency
system.l2.overall_avg_mshr_miss_latency::.cpu.data 81803.255414                       # average overall mshr miss latency
system.l2.overall_avg_mshr_miss_latency::total 81801.659690                       # average overall mshr miss latency
system.l2.replacements                        1479917                       # number of replacements
system.l2.WritebackDirty_hits::.writebacks      1516069                       # number of WritebackDirty hits
system.l2.WritebackDirty_hits::total          1516069                       # number of WritebackDirty hits
system.l2.WritebackDirty_accesses::.writebacks      1516069                       # number of WritebackDirty accesses(hits+misses)
system.l2.WritebackDirty_accesses::total      1516069                       # number of WritebackDirty accesses(hits+misses)
system.l2.WritebackClean_hits::.writebacks          866                       # number of WritebackClean hits
system.l2.WritebackClean_hits::total              866                       # number of WritebackClean hits
system.l2.WritebackClean_accesses::.writebacks          866                       # number of WritebackClean accesses(hits+misses)
system.l2.WritebackClean_accesses::total          866                       # number of WritebackClean accesses(hits+misses)
system.l2.ReadExReq_hits::.cpu.data             17430                       # number of ReadExReq hits
system.l2.ReadExReq_hits::total                 17430                       # number of ReadExReq hits
system.l2.ReadExReq_misses::.cpu.data         1487500                       # number of ReadExReq misses
system.l2.ReadExReq_misses::total             1487500                       # number of ReadExReq misses
system.l2.ReadExReq_miss_latency::.cpu.data 151432460000                       # number of ReadExReq miss cycles
system.l2.ReadExReq_miss_latency::total  151432460000                       # number of ReadExReq miss cycles
system.l2.ReadExReq_accesses::.cpu.data       1504930                       # number of ReadExReq accesses(hits+misses)
system.l2.ReadExReq_accesses::total           1504930                       # number of ReadExReq accesses(hits+misses)
system.l2.ReadExReq_miss_rate::.cpu.data     0.988418                       # miss rate for ReadExReq accesses
system.l2.ReadExReq_miss_rate::total         0.988418                       # miss rate for ReadExReq accesses
system.l2.ReadExReq_avg_miss_latency::.cpu.data 101803.334454                       # average ReadExReq miss latency
system.l2.ReadExReq_avg_miss_latency::total 101803.334454                       # average ReadExReq miss latency
system.l2.ReadExReq_mshr_misses::.cpu.data      1487500                       # number of ReadExReq MSHR misses
system.l2.ReadExReq_mshr_misses::total        1487500                       # number of ReadExReq MSHR misses
system.l2.ReadExReq_mshr_miss_latency::.cpu.data 121682460000                       # number of ReadExReq MSHR miss cycles
system.l2.ReadExReq_mshr_miss_latency::total 121682460000                       # number of ReadExReq MSHR miss cycles
system.l2.ReadExReq_mshr_miss_rate::.cpu.data     0.988418                       # mshr miss rate for ReadExReq accesses
system.l2.ReadExReq_mshr_miss_rate::total     0.988418                       # mshr miss rate for ReadExReq accesses
system.l2.ReadExReq_avg_mshr_miss_latency::.cpu.data 81803.334454                       # average ReadExReq mshr miss latency
system.l2.ReadExReq_avg_mshr_miss_latency::total 81803.334454                       # average ReadExReq mshr miss latency
system.l2.ReadCleanReq_hits::.cpu.inst            543                       # number of ReadCleanReq hits
system.l2.ReadCleanReq_hits::total                543                       # number of ReadCleanReq hits
system.l2.ReadCleanReq_misses::.cpu.inst          496                       # number of ReadCleanReq misses
system.l2.ReadCleanReq_misses::total              496                       # number of ReadCleanReq misses
system.l2.ReadCleanReq_miss_latency::.cpu.inst     48105000                       # number of ReadCleanReq miss cycles
system.l2.ReadCleanReq_miss_latency::total     48105000                       # number of ReadCleanReq miss cycles
system.l2.ReadCleanReq_accesses::.cpu.inst         1039                       # number of ReadCleanReq accesses(hits+misses)
system.l2.ReadCleanReq_accesses::total           1039                       # number of ReadCleanReq accesses(hits+misses)
system.l2.ReadCleanReq_miss_rate::.cpu.inst     0.477382                       # miss rate for ReadCleanReq accesses
system.l2.ReadCleanReq_miss_rate::total      0.477382                       # miss rate for ReadCleanReq accesses
system.l2.ReadCleanReq_avg_miss_latency::.cpu.inst 96985.887097                       # average ReadCleanReq miss latency
system.l2.ReadCleanReq_avg_miss_latency::total 96985.887097                       # average ReadCleanReq miss latency
system.l2.ReadCleanReq_mshr_hits::.cpu.inst            1                       # number of ReadCleanReq MSHR hits
system.l2.ReadCleanReq_mshr_hits::total             1                       # number of ReadCleanReq MSHR hits
system.l2.ReadCleanReq_mshr_misses::.cpu.inst          495                       # number of ReadCleanReq MSHR misses
system.l2.ReadCleanReq_mshr_misses::total          495                       # number of ReadCleanReq MSHR misses
system.l2.ReadCleanReq_mshr_miss_latency::.cpu.inst     38118000                       # number of ReadCleanReq MSHR miss cycles
system.l2.ReadCleanReq_mshr_miss_latency::total     38118000                       # number of ReadCleanReq MSHR miss cycles
system.l2.ReadCleanReq_mshr_miss_rate::.cpu.inst     0.476420                       # mshr miss rate for ReadCleanReq accesses
system.l2.ReadCleanReq_mshr_miss_rate::total     0.476420                       # mshr miss rate for ReadCleanReq accesses
system.l2.ReadCleanReq_avg_mshr_miss_latency::.cpu.inst 77006.060606                       # average ReadCleanReq mshr miss latency
system.l2.ReadCleanReq_avg_mshr_miss_latency::total 77006.060606                       # average ReadCleanReq mshr miss latency
system.l2.ReadSharedReq_hits::.cpu.data         23276                       # number of ReadSharedReq hits
system.l2.ReadSharedReq_hits::total             23276                       # number of ReadSharedReq hits
system.l2.ReadSharedReq_misses::.cpu.data          117                       # number of ReadSharedReq misses
system.l2.ReadSharedReq_misses::total             117                       # number of ReadSharedReq misses
system.l2.ReadSharedReq_miss_latency::.cpu.data     11744000                       # number of ReadSharedReq miss cycles
system.l2.ReadSharedReq_miss_latency::total     11744000                       # number of ReadSharedReq miss cycles
system.l2.ReadSharedReq_accesses::.cpu.data        23393                       # number of ReadSharedReq accesses(hits+misses)
system.l2.ReadSharedReq_accesses::total         23393                       # number of ReadSharedReq accesses(hits+misses)
system.l2.ReadSharedReq_miss_rate::.cpu.data     0.005001                       # miss rate for ReadSharedReq accesses
system.l2.ReadSharedReq_miss_rate::total     0.005001                       # miss rate for ReadSharedReq accesses
system.l2.ReadSharedReq_avg_miss_latency::.cpu.data 100376.068376                       # average ReadSharedReq miss latency
system.l2.ReadSharedReq_avg_miss_latency::total 100376.068376                       # average ReadSharedReq miss latency
system.l2.ReadSharedReq_mshr_hits::.cpu.data            3                       # number of ReadSharedReq MSHR hits
system.l2.ReadSharedReq_mshr_hits::total            3                       # number of ReadSharedReq MSHR hits
system.l2.ReadSharedReq_mshr_misses::.cpu.data          114                       # number of ReadSharedReq MSHR misses
system.l2.ReadSharedReq_mshr_misses::total          114                       # number of ReadSharedReq MSHR misses
system.l2.ReadSharedReq_mshr_miss_latency::.cpu.data      9208000                       # number of ReadSharedReq MSHR miss cycles
system.l2.ReadSharedReq_mshr_miss_latency::total      9208000                       # number of ReadSharedReq MSHR miss cycles
system.l2.ReadSharedReq_mshr_miss_rate::.cpu.data     0.004873                       # mshr miss rate for ReadSharedReq accesses
system.l2.ReadSharedReq_mshr_miss_rate::total     0.004873                       # mshr miss rate for ReadSharedReq accesses
system.l2.ReadSharedReq_avg_mshr_miss_latency::.cpu.data 80771.929825                       # average ReadSharedReq mshr miss latency
system.l2.ReadSharedReq_avg_mshr_miss_latency::total 80771.929825                       # average ReadSharedReq mshr miss latency
system.l2.power_state.pwrStateResidencyTicks::UNDEFINED 265049145000                       # Cumulative time (in ticks) in various power states
system.l2.tags.tagsinuse                  8170.303369                       # Cycle average of tags in use
system.l2.tags.total_refs                     3046405                       # Total number of references to valid blocks.
system.l2.tags.sampled_refs                   1488109                       # Sample count of references to valid blocks.
system.l2.tags.avg_refs                      2.047165                       # Average number of references to valid blocks.
system.l2.tags.warmup_cycle                     87000                       # Cycle when the warmup percentage was hit.
system.l2.tags.occ_blocks::.cpu.inst         3.083354                       # Average occupied blocks per requestor
system.l2.tags.occ_blocks::.cpu.data      8167.220015                       # Average occupied blocks per requestor
system.l2.tags.occ_percent::.cpu.inst        0.000376                       # Average percentage of cache occupancy
system.l2.tags.occ_percent::.cpu.data        0.996975                       # Average percentage of cache occupancy
system.l2.tags.occ_percent::total            0.997351                       # Average percentage of cache occupancy
system.l2.tags.occ_task_id_blocks::1024          8192                       # Occupied blocks per task id
system.l2.tags.age_task_id_blocks_1024::0           56                       # Occupied blocks per task id
system.l2.tags.age_task_id_blocks_1024::1          504                       # Occupied blocks per task id
system.l2.tags.age_task_id_blocks_1024::2         5048                       # Occupied blocks per task id
system.l2.tags.age_task_id_blocks_1024::3         2582                       # Occupied blocks per task id
system.l2.tags.age_task_id_blocks_1024::4            2                       # Occupied blocks per task id
system.l2.tags.occ_task_id_percent::1024            1                       # Percentage of cache occupancy per task id
system.l2.tags.tag_accesses                   7580927                       # Number of tag accesses
system.l2.tags.data_accesses                  7580927                       # Number of data accesses
system.l2.tags.power_state.pwrStateResidencyTicks::UNDEFINED 265049145000                       # Cumulative time (in ticks) in various power states
system.mem_ctrls.avgPriority_.writebacks::samples   1479326.00                       # Average QoS priority value for accepted requests
system.mem_ctrls.avgPriority_.cpu.inst::samples       495.00                       # Average QoS priority value for accepted requests
system.mem_ctrls.avgPriority_.cpu.data::samples   1487614.00                       # Average QoS priority value for accepted requests
system.mem_ctrls.priorityMinLatency      0.000000018750                       # per QoS priority minimum request to response latency (s)
system.mem_ctrls.priorityMaxLatency      0.000750816500                       # per QoS priority maximum request to response latency (s)
system.mem_ctrls.numReadWriteTurnArounds        82339                       # Number of turnarounds from READ to WRITE
system.mem_ctrls.numWriteReadTurnArounds        82340                       # Number of turnarounds from WRITE to READ
system.mem_ctrls.numStayReadState             4457404                       # Number of times bus staying in READ state
system.mem_ctrls.numStayWriteState            1402683                       # Number of times bus staying in WRITE state
system.mem_ctrls.readReqs                     1488109                       # Number of read requests accepted
system.mem_ctrls.writeReqs                    1479326                       # Number of write requests accepted
system.mem_ctrls.readBursts                   1488109                       # Number of controller read bursts, including those serviced by the write queue
system.mem_ctrls.writeBursts                  1479326                       # Number of controller write bursts, including those merged in the write queue
system.mem_ctrls.servicedByWrQ                      0                       # Number of controller read bursts serviced by the write queue
system.mem_ctrls.mergedWrBursts                     0                       # Number of controller write bursts merged with an existing one
system.mem_ctrls.neitherReadNorWriteReqs            0                       # Number of requests that are neither read nor write
system.mem_ctrls.avgRdQLen                       1.00                       # Average read queue length when enqueuing
system.mem_ctrls.avgWrQLen                      24.72                       # Average write queue length when enqueuing
system.mem_ctrls.numRdRetry                         0                       # Number of times read queue was full causing retry
system.mem_ctrls.numWrRetry                         0                       # Number of times write queue was full causing retry
system.mem_ctrls.readPktSize::0                     0                       # Read request sizes (log2)
system.mem_ctrls.readPktSize::1                     0                       # Read request sizes (log2)
system.mem_ctrls.readPktSize::2                     0                       # Read request sizes (log2)
system.mem_ctrls.readPktSize::3                     0                       # Read request sizes (log2)
system.mem_ctrls.readPktSize::4                     0                       # Read request sizes (log2)
system.mem_ctrls.readPktSize::5                     0                       # Read request sizes (log2)
system.mem_ctrls.readPktSize::6               1488109                       # Read request sizes (log2)
system.mem_ctrls.writePktSize::0                    0                       # Write request sizes (log2)
system.mem_ctrls.writePktSize::1                    0                       # Write request sizes (log2)
system.mem_ctrls.writePktSize::2                    0                       # Write request sizes (log2)
system.mem_ctrls.writePktSize::3                    0                       # Write request sizes (log2)
system.mem_ctrls.writePktSize::4                    0                       # Write request sizes (log2)
system.mem_ctrls.writePktSize::5                    0                       # Write request sizes (log2)
system.mem_ctrls.writePktSize::6              1479326                       # Write request sizes (log2)
system.mem_ctrls.rdQLenPdf::0                 1488028                       # What read queue length does an incoming req see
system.mem_ctrls.rdQLenPdf::1                      76                       # What read queue length does an incoming req see
system.mem_ctrls.rdQLenPdf::2                       5                       # What read queue length does an incoming req see
system.mem_ctrls.rdQLenPdf::3                       0                       # What read queue length does an incoming req see
system.mem_ctrls.rdQLenPdf::4                       0                       # What read queue length does an incoming req see
system.mem_ctrls.rdQLenPdf::5                       0                       # What read queue length does an incoming req see
system.mem_ctrls.rdQLenPdf::6                       0                       # What read queue length does an incoming req see
system.mem_ctrls.rdQLenPdf::7                       0                       # What read queue length does an incoming req see
system.mem_ctrls.rdQLenPdf::8                       0                       # What read queue length does an incoming req see
system.mem_ctrls.rdQLenPdf::9                       0                       # What read queue length does an incoming req see
system.mem_ctrls.rdQLenPdf::10                      0                       # What read queue length does an incoming req see
system.mem_ctrls.rdQLenPdf::11                      0                       # What read queue length does an incoming req see
[...]
system.mem_ctrls.dram.bw_write::.writebacks    357204940                       # Write bandwidth from this memory (bytes/s)
system.mem_ctrls.dram.bw_write::total       357204940                       # Write bandwidth from this memory (bytes/s)
system.mem_ctrls.dram.bw_total::.writebacks    357204940                       # Total bandwidth to/from this memory (bytes/s)
system.mem_ctrls.dram.bw_total::.cpu.inst       119525                       # Total bandwidth to/from this memory (bytes/s)
system.mem_ctrls.dram.bw_total::.cpu.data    359206199                       # Total bandwidth to/from this memory (bytes/s)
system.mem_ctrls.dram.bw_total::total       716530665                       # Total bandwidth to/from this memory (bytes/s)
system.mem_ctrls.dram.readBursts              1488109                       # Number of DRAM read bursts
system.mem_ctrls.dram.writeBursts             1479302                       # Number of DRAM write bursts
system.mem_ctrls.dram.perBankRdBursts::0        93031                       # Per bank write bursts
system.mem_ctrls.dram.perBankRdBursts::1        92977                       # Per bank write bursts
system.mem_ctrls.dram.perBankRdBursts::2        93002                       # Per bank write bursts
system.mem_ctrls.dram.perBankRdBursts::3        92951                       # Per bank write bursts
system.mem_ctrls.dram.perBankRdBursts::4        92983                       # Per bank write bursts
system.mem_ctrls.dram.perBankRdBursts::5        93010                       # Per bank write bursts
system.mem_ctrls.dram.perBankRdBursts::6        93062                       # Per bank write bursts
system.mem_ctrls.dram.perBankRdBursts::7        93077                       # Per bank write bursts
system.mem_ctrls.dram.perBankRdBursts::8        93153                       # Per bank write bursts
system.mem_ctrls.dram.perBankRdBursts::9        93077                       # Per bank write bursts
system.mem_ctrls.dram.perBankRdBursts::10        92956                       # Per bank write bursts
system.mem_ctrls.dram.perBankRdBursts::11        92950                       # Per bank write bursts
system.mem_ctrls.dram.perBankRdBursts::12        92996                       # Per bank write bursts
system.mem_ctrls.dram.perBankRdBursts::13        92953                       # Per bank write bursts
system.mem_ctrls.dram.perBankRdBursts::14        92960                       # Per bank write bursts
system.mem_ctrls.dram.perBankRdBursts::15        92971                       # Per bank write bursts
system.mem_ctrls.dram.perBankWrBursts::0        92420                       # Per bank write bursts
system.mem_ctrls.dram.perBankWrBursts::1        92456                       # Per bank write bursts
system.mem_ctrls.dram.perBankWrBursts::2        92442                       # Per bank write bursts
system.mem_ctrls.dram.perBankWrBursts::3        92431                       # Per bank write bursts
system.mem_ctrls.dram.perBankWrBursts::4        92423                       # Per bank write bursts
system.mem_ctrls.dram.perBankWrBursts::5        92481                       # Per bank write bursts
system.mem_ctrls.dram.perBankWrBursts::6        92544                       # Per bank write bursts
system.mem_ctrls.dram.perBankWrBursts::7        92544                       # Per bank write bursts
system.mem_ctrls.dram.perBankWrBursts::8        92544                       # Per bank write bursts
system.mem_ctrls.dram.perBankWrBursts::9        92521                       # Per bank write bursts
system.mem_ctrls.dram.perBankWrBursts::10        92416                       # Per bank write bursts
system.mem_ctrls.dram.perBankWrBursts::11        92416                       # Per bank write bursts
system.mem_ctrls.dram.perBankWrBursts::12        92416                       # Per bank write bursts
system.mem_ctrls.dram.perBankWrBursts::13        92416                       # Per bank write bursts
system.mem_ctrls.dram.perBankWrBursts::14        92416                       # Per bank write bursts
system.mem_ctrls.dram.perBankWrBursts::15        92416                       # Per bank write bursts
system.mem_ctrls.dram.totQLat             17542043000                       # Total ticks spent queuing
system.mem_ctrls.dram.totBusLat            7440545000                       # Total ticks spent in databus transfers
system.mem_ctrls.dram.totMemAccLat        45444086750                       # Total ticks spent from burst creation until serviced by the DRAM
system.mem_ctrls.dram.avgQLat                11788.14                       # Average queueing delay per DRAM burst
system.mem_ctrls.dram.avgBusLat               5000.00                       # Average bus latency per DRAM burst
system.mem_ctrls.dram.avgMemAccLat           30538.14                       # Average memory access latency per DRAM burst
system.mem_ctrls.dram.readRowHits             1314845                       # Number of row buffer hits during reads
system.mem_ctrls.dram.writeRowHits            1313278                       # Number of row buffer hits during writes
system.mem_ctrls.dram.readRowHitRate            88.36                       # Row buffer hit rate for reads
system.mem_ctrls.dram.writeRowHitRate           88.78                       # Row buffer hit rate for writes
system.mem_ctrls.dram.bytesPerActivate::samples       339286                       # Bytes accessed per row activation
system.mem_ctrls.dram.bytesPerActivate::mean   559.745065                       # Bytes accessed per row activation
system.mem_ctrls.dram.bytesPerActivate::gmean   371.532733                       # Bytes accessed per row activation
system.mem_ctrls.dram.bytesPerActivate::stdev   410.395798                       # Bytes accessed per row activation
system.mem_ctrls.dram.bytesPerActivate::0-127        15835      4.67%      4.67% # Bytes accessed per row activation
system.mem_ctrls.dram.bytesPerActivate::128-255       123715     36.46%     41.13% # Bytes accessed per row activation
system.mem_ctrls.dram.bytesPerActivate::256-383        12916      3.81%     44.94% # Bytes accessed per row activation
system.mem_ctrls.dram.bytesPerActivate::384-511        12911      3.81%     48.74% # Bytes accessed per row activation
system.mem_ctrls.dram.bytesPerActivate::512-639        14337      4.23%     52.97% # Bytes accessed per row activation
system.mem_ctrls.dram.bytesPerActivate::640-767        12201      3.60%     56.56% # Bytes accessed per row activation
system.mem_ctrls.dram.bytesPerActivate::768-895        10814      3.19%     59.75% # Bytes accessed per row activation
system.mem_ctrls.dram.bytesPerActivate::896-1023        11513      3.39%     63.14% # Bytes accessed per row activation
system.mem_ctrls.dram.bytesPerActivate::1024-1151       125044     36.86%    100.00% # Bytes accessed per row activation
system.mem_ctrls.dram.bytesPerActivate::total       339286                       # Bytes accessed per row activation
system.mem_ctrls.dram.bytesRead              95238976                       # Total number of bytes read from DRAM
system.mem_ctrls.dram.bytesWritten           94675328                       # Total number of bytes written to DRAM
system.mem_ctrls.dram.avgRdBW              359.325724                       # Average DRAM read bandwidth in MiBytes/s
system.mem_ctrls.dram.avgWrBW              357.199145                       # Average DRAM write bandwidth in MiBytes/s
system.mem_ctrls.dram.peakBW                 12800.00                       # Theoretical peak bandwidth in MiByte/s
system.mem_ctrls.dram.busUtil                    5.60                       # Data bus utilization in percentage
system.mem_ctrls.dram.busUtilRead                2.81                       # Data bus utilization in percentage for reads
system.mem_ctrls.dram.busUtilWrite               2.79                       # Data bus utilization in percentage for writes
system.mem_ctrls.dram.pageHitRate               88.57                       # Row buffer hit rate, read and write combined
system.mem_ctrls.dram.power_state.pwrStateResidencyTicks::UNDEFINED 265049145000                       # Cumulative time (in ticks) in various power states
system.mem_ctrls.dram.rank0.actEnergy      1214078460                       # Energy for activate commands per rank (pJ)
system.mem_ctrls.dram.rank0.preEnergy       645298005                       # Energy for precharge commands per rank (pJ)
system.mem_ctrls.dram.rank0.readEnergy     5312824020                       # Energy for read commands per rank (pJ)
system.mem_ctrls.dram.rank0.writeEnergy    3861448020                       # Energy for write commands per rank (pJ)
system.mem_ctrls.dram.rank0.refreshEnergy 20922345600.000004                       # Energy for refresh commands per rank (pJ)
system.mem_ctrls.dram.rank0.actBackEnergy  61986329220                       # Energy for active background per rank (pJ)
system.mem_ctrls.dram.rank0.preBackEnergy  49579857600                       # Energy for precharge background per rank (pJ)
system.mem_ctrls.dram.rank0.actPowerDownEnergy            0                       # Energy for active power-down per rank (pJ)
system.mem_ctrls.dram.rank0.prePowerDownEnergy            0                       # Energy for precharge power-down per rank (pJ)
system.mem_ctrls.dram.rank0.selfRefreshEnergy            0                       # Energy for self refresh per rank (pJ)
system.mem_ctrls.dram.rank0.totalEnergy  143522180925                       # Total energy per rank (pJ)
system.mem_ctrls.dram.rank0.averagePower   541.492714                       # Core power per rank (mW)
system.mem_ctrls.dram.rank0.totalIdleTime            0                       # Total Idle time Per DRAM Rank
system.mem_ctrls.dram.rank0.pwrStateTime::IDLE 126911997750                       # Time in different power states
system.mem_ctrls.dram.rank0.pwrStateTime::REF   8850400000                       # Time in different power states
system.mem_ctrls.dram.rank0.pwrStateTime::SREF            0                       # Time in different power states
system.mem_ctrls.dram.rank0.pwrStateTime::PRE_PDN            0                       # Time in different power states
system.mem_ctrls.dram.rank0.pwrStateTime::ACT 129286747250                       # Time in different power states
system.mem_ctrls.dram.rank0.pwrStateTime::ACT_PDN            0                       # Time in different power states
system.mem_ctrls.dram.rank1.actEnergy      1208437860                       # Energy for activate commands per rank (pJ)
system.mem_ctrls.dram.rank1.preEnergy       642292365                       # Energy for precharge commands per rank (pJ)
system.mem_ctrls.dram.rank1.readEnergy     5312274240                       # Energy for read commands per rank (pJ)
system.mem_ctrls.dram.rank1.writeEnergy    3860482320                       # Energy for write commands per rank (pJ)
system.mem_ctrls.dram.rank1.refreshEnergy 20922345600.000004                       # Energy for refresh commands per rank (pJ)
system.mem_ctrls.dram.rank1.actBackEnergy  61890767010                       # Energy for active background per rank (pJ)
system.mem_ctrls.dram.rank1.preBackEnergy  49660331040                       # Energy for precharge background per rank (pJ)
system.mem_ctrls.dram.rank1.actPowerDownEnergy            0                       # Energy for active power-down per rank (pJ)
system.mem_ctrls.dram.rank1.prePowerDownEnergy            0                       # Energy for precharge power-down per rank (pJ)
system.mem_ctrls.dram.rank1.selfRefreshEnergy            0                       # Energy for self refresh per rank (pJ)
system.mem_ctrls.dram.rank1.totalEnergy  143496930435                       # Total energy per rank (pJ)
system.mem_ctrls.dram.rank1.averagePower   541.397447                       # Core power per rank (mW)
system.mem_ctrls.dram.rank1.totalIdleTime            0                       # Total Idle time Per DRAM Rank
system.mem_ctrls.dram.rank1.pwrStateTime::IDLE 127144082500                       # Time in different power states
system.mem_ctrls.dram.rank1.pwrStateTime::REF   8850400000                       # Time in different power states
system.mem_ctrls.dram.rank1.pwrStateTime::SREF            0                       # Time in different power states
system.mem_ctrls.dram.rank1.pwrStateTime::PRE_PDN            0                       # Time in different power states
system.mem_ctrls.dram.rank1.pwrStateTime::ACT 129054662500                       # Time in different power states
system.mem_ctrls.dram.rank1.pwrStateTime::ACT_PDN            0                       # Time in different power states
system.mem_ctrls.power_state.pwrStateResidencyTicks::UNDEFINED 265049145000                       # Cumulative time (in ticks) in various power states
system.membus.trans_dist::ReadResp                609                       # Transaction distribution
system.membus.trans_dist::WritebackDirty      1479326                       # Transaction distribution
system.membus.trans_dist::CleanEvict              465                       # Transaction distribution
system.membus.trans_dist::ReadExReq           1487500                       # Transaction distribution
system.membus.trans_dist::ReadExResp          1487500                       # Transaction distribution
system.membus.trans_dist::ReadSharedReq           609                       # Transaction distribution
system.membus.pkt_count_system.l2.mem_side_port::system.mem_ctrls.port      4456009                       # Packet count per connected requestor and responder (bytes)
system.membus.pkt_count::total                4456009                       # Packet count per connected requestor and responder (bytes)
system.membus.pkt_size_system.l2.mem_side_port::system.mem_ctrls.port    189915840                       # Cumulative packet size per connected requestor and responder (bytes)
system.membus.pkt_size::total               189915840                       # Cumulative packet size per connected requestor and responder (bytes)
system.membus.snoops                                0                       # Total snoops (count)
system.membus.snoopTraffic                          0                       # Total snoop traffic (bytes)
system.membus.snoop_fanout::samples           1488109                       # Request fanout histogram
system.membus.snoop_fanout::mean                    0                       # Request fanout histogram
system.membus.snoop_fanout::stdev                   0                       # Request fanout histogram
system.membus.snoop_fanout::underflows              0      0.00%      0.00% # Request fanout histogram
system.membus.snoop_fanout::0                 1488109    100.00%    100.00% # Request fanout histogram
system.membus.snoop_fanout::1                       0      0.00%    100.00% # Request fanout histogram
system.membus.snoop_fanout::overflows               0      0.00%    100.00% # Request fanout histogram
system.membus.snoop_fanout::min_value               0                       # Request fanout histogram
system.membus.snoop_fanout::max_value               0                       # Request fanout histogram
system.membus.snoop_fanout::total             1488109                       # Request fanout histogram
system.membus.power_state.pwrStateResidencyTicks::UNDEFINED 265049145000                       # Cumulative time (in ticks) in various power states
system.membus.reqLayer0.occupancy          8885204000                       # Layer occupancy (ticks)
system.membus.reqLayer0.utilization               3.4                       # Layer utilization (%)
system.membus.respLayer1.occupancy         7832678750                       # Layer occupancy (ticks)
system.membus.respLayer1.utilization              3.0                       # Layer utilization (%)
system.tol2bus.trans_dist::ReadResp             24432                       # Transaction distribution
system.tol2bus.trans_dist::WritebackDirty      2995395                       # Transaction distribution
system.tol2bus.trans_dist::WritebackClean          912                       # Transaction distribution
system.tol2bus.trans_dist::CleanEvict           12333                       # Transaction distribution
system.tol2bus.trans_dist::ReadExReq          1504930                       # Transaction distribution
system.tol2bus.trans_dist::ReadExResp         1504930                       # Transaction distribution
system.tol2bus.trans_dist::ReadCleanReq          1039                       # Transaction distribution
system.tol2bus.trans_dist::ReadSharedReq        23393                       # Transaction distribution
system.tol2bus.pkt_count_system.cpu.icache.mem_side_port::system.l2.cpu_side_port         2990                       # Packet count per connected requestor and responder (bytes)
system.tol2bus.pkt_count_system.cpu.dcache.mem_side_port::system.l2.cpu_side_port      4584457                       # Packet count per connected requestor and responder (bytes)
system.tol2bus.pkt_count::total               4587447                       # Packet count per connected requestor and responder (bytes)
system.tol2bus.pkt_size_system.cpu.icache.mem_side_port::system.l2.cpu_side_port       124864                       # Cumulative packet size per connected requestor and responder (bytes)
system.tol2bus.pkt_size_system.cpu.dcache.mem_side_port::system.l2.cpu_side_port    194841088                       # Cumulative packet size per connected requestor and responder (bytes)
system.tol2bus.pkt_size::total              194965952                       # Cumulative packet size per connected requestor and responder (bytes)
system.tol2bus.snoops                         1479917                       # Total snoops (count)
system.tol2bus.snoopTraffic                  94676864                       # Total snoop traffic (bytes)
system.tol2bus.snoop_fanout::samples          3009279                       # Request fanout histogram
system.tol2bus.snoop_fanout::mean            0.003922                       # Request fanout histogram
system.tol2bus.snoop_fanout::stdev           0.062505                       # Request fanout histogram
system.tol2bus.snoop_fanout::underflows             0      0.00%      0.00% # Request fanout histogram
system.tol2bus.snoop_fanout::0                2997476     99.61%     99.61% # Request fanout histogram
system.tol2bus.snoop_fanout::1                  11803      0.39%    100.00% # Request fanout histogram
system.tol2bus.snoop_fanout::2                      0      0.00%    100.00% # Request fanout histogram
system.tol2bus.snoop_fanout::overflows              0      0.00%    100.00% # Request fanout histogram
system.tol2bus.snoop_fanout::min_value              0                       # Request fanout histogram
system.tol2bus.snoop_fanout::max_value              1                       # Request fanout histogram
system.tol2bus.snoop_fanout::total            3009279                       # Request fanout histogram
system.tol2bus.power_state.pwrStateResidencyTicks::UNDEFINED 265049145000                       # Cumulative time (in ticks) in various power states
system.tol2bus.reqLayer0.occupancy         6092047000                       # Layer occupancy (ticks)
system.tol2bus.reqLayer0.utilization              2.3                       # Layer utilization (%)
system.tol2bus.respLayer0.occupancy           3117999                       # Layer occupancy (ticks)
system.tol2bus.respLayer0.utilization             0.0                       # Layer utilization (%)
system.tol2bus.respLayer1.occupancy        4584972996                       # Layer occupancy (ticks)
system.tol2bus.respLayer1.utilization             1.7                       # Layer utilization (%)
system.voltage_domain.voltage                       1                       # Voltage in Volts

---------- End Simulation Statistics   ----------
