
---------- Begin Simulation Statistics ----------
final_tick                               705334126000                       # Number of ticks from beginning of simulation (restored from checkpoints and never reset)
host_inst_rate                                  67174                       # Simulator instruction rate (inst/s)
host_mem_usage                                 674708                       # Number of bytes of host memory used
host_op_rate                                   123747                       # Simulator op (including micro ops) rate (op/s)
host_seconds                                  1488.67                       # Real time elapsed on the host
host_tick_rate                              473801120                       # Simulator tick rate (ticks/s)
sim_freq                                 1000000000000                       # Frequency of simulated ticks
sim_insts                                   100000001                       # Number of instructions simulated
sim_ops                                     184218784                       # Number of ops (including micro ops) simulated
sim_seconds                                  0.705334                       # Number of seconds simulated
sim_ticks                                705334126000                       # Number of ticks simulated
system.cpu.committedInsts                   100000001                       # Number of instructions committed
system.cpu.committedOps                     184218784                       # Number of ops (including micro ops) committed
system.cpu.cpi                               7.053341                       # CPI: cycles per instruction
system.cpu.discardedOps                          4403                       # Number of ops (including micro ops) which were discarded before commit
system.cpu.idleCycles                       483642294                       # Total number of cycles that the object has spent stopped
system.cpu.ipc                               0.141777                       # IPC: instructions per cycle
system.cpu.numCycles                        705334126                       # number of cpu cycles simulated
system.cpu.numFetchSuspends                         0                       # Number of times Execute suspended instruction fetching
system.cpu.numWorkItemsCompleted                    0                       # number of work items this cpu completed
system.cpu.numWorkItemsStarted                      0                       # number of work items this cpu started
system.cpu.op_class_0::No_OpClass                   0      0.00%      0.00% # Class of committed instruction
system.cpu.op_class_0::IntAlu                97640468     53.00%     53.00% # Class of committed instruction
system.cpu.op_class_0::IntMult                 114702      0.06%     53.06% # Class of committed instruction
system.cpu.op_class_0::IntDiv                       0      0.00%     53.06% # Class of committed instruction
system.cpu.op_class_0::FloatAdd                     0      0.00%     53.06% # Class of committed instruction
system.cpu.op_class_0::FloatCmp                     0      0.00%     53.06% # Class of committed instruction
system.cpu.op_class_0::FloatCvt                     0      0.00%     53.06% # Class of committed instruction
system.cpu.op_class_0::FloatMult                    0      0.00%     53.06% # Class of committed instruction
system.cpu.op_class_0::FloatMultAcc                 0      0.00%     53.06% # Class of committed instruction
system.cpu.op_class_0::FloatDiv                     0      0.00%     53.06% # Class of committed instruction
system.cpu.op_class_0::FloatMisc                    0      0.00%     53.06% # Class of committed instruction
system.cpu.op_class_0::FloatSqrt                    0      0.00%     53.06% # Class of committed instruction
system.cpu.op_class_0::SimdAdd                      8      0.00%     53.06% # Class of committed instruction
system.cpu.op_class_0::SimdAddAcc                   0      0.00%     53.06% # Class of committed instruction
system.cpu.op_class_0::SimdAlu                     10      0.00%     53.06% # Class of committed instruction
system.cpu.op_class_0::SimdCmp                      8      0.00%     53.06% # Class of committed instruction
system.cpu.op_class_0::SimdCvt                      0      0.00%     53.06% # Class of committed instruction
system.cpu.op_class_0::SimdMisc                     1      0.00%     53.06% # Class of committed instruction
system.cpu.op_class_0::SimdMult                     0      0.00%     53.06% # Class of committed instruction
system.cpu.op_class_0::SimdMultAcc                  0      0.00%     53.06% # Class of committed instruction
system.cpu.op_class_0::SimdShift                    0      0.00%     53.06% # Class of committed instruction
system.cpu.op_class_0::SimdShiftAcc                 0      0.00%     53.06% # Class of committed instruction
system.cpu.op_class_0::SimdDiv                      0      0.00%     53.06% # Class of committed instruction
system.cpu.op_class_0::SimdSqrt                     0      0.00%     53.06% # Class of committed instruction
system.cpu.op_class_0::SimdFloatAdd                 0      0.00%     53.06% # Class of committed instruction
system.cpu.op_class_0::SimdFloatAlu                 0      0.00%     53.06% # Class of committed instruction
system.cpu.op_class_0::SimdFloatCmp                 0      0.00%     53.06% # Class of committed instruction
system.cpu.op_class_0::SimdFloatCvt                 0      0.00%     53.06% # Class of committed instruction
system.cpu.op_class_0::SimdFloatDiv                 0      0.00%     53.06% # Class of committed instruction
system.cpu.op_class_0::SimdFloatMisc               24      0.00%     53.06% # Class of committed instruction
system.cpu.op_class_0::SimdFloatMult                0      0.00%     53.06% # Class of committed instruction
system.cpu.op_class_0::SimdFloatMultAcc             0      0.00%     53.06% # Class of committed instruction
system.cpu.op_class_0::SimdFloatSqrt                0      0.00%     53.06% # Class of committed instruction
system.cpu.op_class_0::SimdReduceAdd                0      0.00%     53.06% # Class of committed instruction
system.cpu.op_class_0::SimdReduceAlu                0      0.00%     53.06% # Class of committed instruction
system.cpu.op_class_0::SimdReduceCmp                0      0.00%     53.06% # Class of committed instruction
system.cpu.op_class_0::SimdFloatReduceAdd            0      0.00%     53.06% # Class of committed instruction
system.cpu.op_class_0::SimdFloatReduceCmp            0      0.00%     53.06% # Class of committed instruction
system.cpu.op_class_0::SimdAes                      0      0.00%     53.06% # Class of committed instruction
system.cpu.op_class_0::SimdAesMix                   0      0.00%     53.06% # Class of committed instruction
system.cpu.op_class_0::SimdSha1Hash                 0      0.00%     53.06% # Class of committed instruction
system.cpu.op_class_0::SimdSha1Hash2                0      0.00%     53.06% # Class of committed instruction
system.cpu.op_class_0::SimdSha256Hash               0      0.00%     53.06% # Class of committed instruction
system.cpu.op_class_0::SimdSha256Hash2              0      0.00%     53.06% # Class of committed instruction
system.cpu.op_class_0::SimdShaSigma2                0      0.00%     53.06% # Class of committed instruction
system.cpu.op_class_0::SimdShaSigma3                0      0.00%     53.06% # Class of committed instruction
system.cpu.op_class_0::SimdPredAlu                  0      0.00%     53.06% # Class of committed instruction
system.cpu.op_class_0::MemRead                2082677      1.13%     54.20% # Class of committed instruction
system.cpu.op_class_0::MemWrite              84380886     45.80%    100.00% # Class of committed instruction
system.cpu.op_class_0::FloatMemRead                 0      0.00%    100.00% # Class of committed instruction
system.cpu.op_class_0::FloatMemWrite                0      0.00%    100.00% # Class of committed instruction
system.cpu.op_class_0::IprAccess                    0      0.00%    100.00% # Class of committed instruction
system.cpu.op_class_0::InstPrefetch                 0      0.00%    100.00% # Class of committed instruction
system.cpu.op_class_0::total                184218784                       # Class of committed instruction
system.cpu.tickCycles                       221691832                       # Number of cycles that the object actually ticked
system.cpu.workload.numSyscalls                    19                       # Number of system calls
system.membus.snoop_filter.hit_multi_requests            0                       # Number of requests hitting in the snoop filter with multiple (>1) holders of the requested data.
system.membus.snoop_filter.hit_multi_snoops            0                       # Number of snoops hitting in the snoop filter with multiple (>1) holders of the requested data.
system.membus.snoop_filter.hit_single_requests      5197987                       # Number of requests hitting in the snoop filter with a single holder of the requested data.
system.membus.snoop_filter.hit_single_snoops            0                       # Number of snoops hitting in the snoop filter with a single holder of the requested data.
system.membus.snoop_filter.tot_requests      10461869                       # Total number of requests made to the snoop filter.
system.membus.snoop_filter.tot_snoops               0                       # Total number of snoops made to the snoop filter.
system.tol2bus.snoop_filter.hit_multi_requests          623                       # Number of requests hitting in the snoop filter with multiple (>1) holders of the requested data.
system.tol2bus.snoop_filter.hit_multi_snoops            0                       # Number of snoops hitting in the snoop filter with multiple (>1) holders of the requested data.
system.tol2bus.snoop_filter.hit_single_requests      5269720                       # Number of requests hitting in the snoop filter with a single holder of the requested data.
system.tol2bus.snoop_filter.hit_single_snoops          466                       # Number of snoops hitting in the snoop filter with a single holder of the requested data.
system.tol2bus.snoop_filter.tot_requests     10540322                       # Total number of requests made to the snoop filter.
system.tol2bus.snoop_filter.tot_snoops            466                       # Total number of snoops made to the snoop filter.
system.clk_domain.clock                          1000                       # Clock period in ticks
system.cpu.branchPred.lookups                10658208                       # Number of BP lookups
system.cpu.branchPred.condPredicted          10649987                       # Number of conditional branches predicted
system.cpu.branchPred.condIncorrect              1451                       # Number of conditional branches incorrect
system.cpu.branchPred.BTBLookups             10650197                       # Number of BTB lookups
system.cpu.branchPred.BTBHits                10648844                       # Number of BTB hits
system.cpu.branchPred.BTBHitPct             99.987296                       # BTB Hit Percentage
system.cpu.branchPred.RASUsed                    2709                       # Number of times the RAS was used to get a target.
system.cpu.branchPred.RASIncorrect                  1                       # Number of incorrect RAS predictions.
system.cpu.branchPred.indirectLookups             192                       # Number of indirect predictor lookups.
system.cpu.branchPred.indirectHits                 19                       # Number of indirect target hits.
system.cpu.branchPred.indirectMisses              173                       # Number of indirect misses.
system.cpu.branchPred.indirectMispredicted          105                       # Number of mispredicted indirect branches.
system.cpu.dcache.demand_hits::.cpu.data     75850164                       # number of demand (read+write) hits
system.cpu.dcache.demand_hits::total         75850164                       # number of demand (read+write) hits
system.cpu.dcache.overall_hits::.cpu.data     75850200                       # number of overall hits
system.cpu.dcache.overall_hits::total        75850200                       # number of overall hits
system.cpu.dcache.demand_misses::.cpu.data     10530437                       # number of demand (read+write) misses
system.cpu.dcache.demand_misses::total       10530437                       # number of demand (read+write) misses
system.cpu.dcache.overall_misses::.cpu.data     10530472                       # number of overall misses
system.cpu.dcache.overall_misses::total      10530472                       # number of overall misses
system.cpu.dcache.demand_miss_latency::.cpu.data 1108929270999                       # number of demand (read+write) miss cycles
system.cpu.dcache.demand_miss_latency::total 1108929270999                       # number of demand (read+write) miss cycles
system.cpu.dcache.overall_miss_latency::.cpu.data 1108929270999                       # number of overall miss cycles
system.cpu.dcache.overall_miss_latency::total 1108929270999                       # number of overall miss cycles
system.cpu.dcache.demand_accesses::.cpu.data     86380601                       # number of demand (read+write) accesses
system.cpu.dcache.demand_accesses::total     86380601                       # number of demand (read+write) accesses
system.cpu.dcache.overall_accesses::.cpu.data     86380672                       # number of overall (read+write) accesses
system.cpu.dcache.overall_accesses::total     86380672                       # number of overall (read+write) accesses
system.cpu.dcache.demand_miss_rate::.cpu.data     0.121907                       # miss rate for demand accesses
system.cpu.dcache.demand_miss_rate::total     0.121907                       # miss rate for demand accesses
system.cpu.dcache.overall_miss_rate::.cpu.data     0.121908                       # miss rate for overall accesses
system.cpu.dcache.overall_miss_rate::total     0.121908                       # miss rate for overall accesses
system.cpu.dcache.demand_avg_miss_latency::.cpu.data 105307.051455                       # average overall miss latency
system.cpu.dcache.demand_avg_miss_latency::total 105307.051455                       # average overall miss latency
system.cpu.dcache.overall_avg_miss_latency::.cpu.data 105306.701447                       # average overall miss latency
system.cpu.dcache.overall_avg_miss_latency::total 105306.701447                       # average overall miss latency
system.cpu.dcache.blocked_cycles::no_mshrs          126                       # number of cycles access was blocked
system.cpu.dcache.blocked_cycles::no_targets            0                       # number of cycles access was blocked
system.cpu.dcache.blocked::no_mshrs                 2                       # number of cycles access was blocked
system.cpu.dcache.blocked::no_targets               0                       # number of cycles access was blocked
system.cpu.dcache.avg_blocked_cycles::no_mshrs           63                       # average number of cycles each access was blocked
system.cpu.dcache.avg_blocked_cycles::no_targets          nan                       # average number of cycles each access was blocked
system.cpu.dcache.writebacks::.writebacks      5266268                       # number of writebacks
system.cpu.dcache.writebacks::total           5266268                       # number of writebacks
system.cpu.dcache.demand_mshr_hits::.cpu.data      5260546                       # number of demand (read+write) MSHR hits
system.cpu.dcache.demand_mshr_hits::total      5260546                       # number of demand (read+write) MSHR hits
system.cpu.dcache.overall_mshr_hits::.cpu.data      5260546                       # number of overall MSHR hits
system.cpu.dcache.overall_mshr_hits::total      5260546                       # number of overall MSHR hits
system.cpu.dcache.demand_mshr_misses::.cpu.data      5269891                       # number of demand (read+write) MSHR misses
system.cpu.dcache.demand_mshr_misses::total      5269891                       # number of demand (read+write) MSHR misses
system.cpu.dcache.overall_mshr_misses::.cpu.data      5269923                       # number of overall MSHR misses
system.cpu.dcache.overall_mshr_misses::total      5269923                       # number of overall MSHR misses
system.cpu.dcache.demand_mshr_miss_latency::.cpu.data 541547917000                       # number of demand (read+write) MSHR miss cycles
system.cpu.dcache.demand_mshr_miss_latency::total 541547917000                       # number of demand (read+write) MSHR miss cycles
system.cpu.dcache.overall_mshr_miss_latency::.cpu.data 541551007000                       # number of overall MSHR miss cycles
system.cpu.dcache.overall_mshr_miss_latency::total 541551007000                       # number of overall MSHR miss cycles
system.cpu.dcache.demand_mshr_miss_rate::.cpu.data     0.061008                       # mshr miss rate for demand accesses
system.cpu.dcache.demand_mshr_miss_rate::total     0.061008                       # mshr miss rate for demand accesses
system.cpu.dcache.overall_mshr_miss_rate::.cpu.data     0.061008                       # mshr miss rate for overall accesses
system.cpu.dcache.overall_mshr_miss_rate::total     0.061008                       # mshr miss rate for overall accesses
system.cpu.dcache.demand_avg_mshr_miss_latency::.cpu.data 102762.641011                       # average overall mshr miss latency
system.cpu.dcache.demand_avg_mshr_miss_latency::total 102762.641011                       # average overall mshr miss latency
system.cpu.dcache.overall_avg_mshr_miss_latency::.cpu.data 102762.603363                       # average overall mshr miss latency
system.cpu.dcache.overall_avg_mshr_miss_latency::total 102762.603363                       # average overall mshr miss latency
system.cpu.dcache.replacements                5269411                       # number of replacements
system.cpu.dcache.ReadReq_hits::.cpu.data      2040315                       # number of ReadReq hits
system.cpu.dcache.ReadReq_hits::total         2040315                       # number of ReadReq hits
system.cpu.dcache.ReadReq_misses::.cpu.data         3694                       # number of ReadReq misses
system.cpu.dcache.ReadReq_misses::total          3694                       # number of ReadReq misses
system.cpu.dcache.ReadReq_miss_latency::.cpu.data    128309000                       # number of ReadReq miss cycles
system.cpu.dcache.ReadReq_miss_latency::total    128309000                       # number of ReadReq miss cycles
system.cpu.dcache.ReadReq_accesses::.cpu.data      2044009                       # number of ReadReq accesses(hits+misses)
system.cpu.dcache.ReadReq_accesses::total      2044009                       # number of ReadReq accesses(hits+misses)
system.cpu.dcache.ReadReq_miss_rate::.cpu.data     0.001807                       # miss rate for ReadReq accesses
system.cpu.dcache.ReadReq_miss_rate::total     0.001807                       # miss rate for ReadReq accesses
system.cpu.dcache.ReadReq_avg_miss_latency::.cpu.data 34734.434218                       # average ReadReq miss latency
system.cpu.dcache.ReadReq_avg_miss_latency::total 34734.434218                       # average ReadReq miss latency
system.cpu.dcache.ReadReq_mshr_hits::.cpu.data           38                       # number of ReadReq MSHR hits
system.cpu.dcache.ReadReq_mshr_hits::total           38                       # number of ReadReq MSHR hits
system.cpu.dcache.ReadReq_mshr_misses::.cpu.data         3656                       # number of ReadReq MSHR misses
system.cpu.dcache.ReadReq_mshr_misses::total         3656                       # number of ReadReq MSHR misses
system.cpu.dcache.ReadReq_mshr_miss_latency::.cpu.data    118092000                       # number of ReadReq MSHR miss cycles
system.cpu.dcache.ReadReq_mshr_miss_latency::total    118092000                       # number of ReadReq MSHR miss cycles
system.cpu.dcache.ReadReq_mshr_miss_rate::.cpu.data     0.001789                       # mshr miss rate for ReadReq accesses
system.cpu.dcache.ReadReq_mshr_miss_rate::total     0.001789                       # mshr miss rate for ReadReq accesses
system.cpu.dcache.ReadReq_avg_mshr_miss_latency::.cpu.data 32300.875274                       # average ReadReq mshr miss latency
system.cpu.dcache.ReadReq_avg_mshr_miss_latency::total 32300.875274                       # average ReadReq mshr miss latency
system.cpu.dcache.WriteReq_hits::.cpu.data     73809849                       # number of WriteReq hits
system.cpu.dcache.WriteReq_hits::total       73809849                       # number of WriteReq hits
system.cpu.dcache.WriteReq_misses::.cpu.data     10526743                       # number of WriteReq misses
system.cpu.dcache.WriteReq_misses::total     10526743                       # number of WriteReq misses
system.cpu.dcache.WriteReq_miss_latency::.cpu.data 1108800961999                       # number of WriteReq miss cycles
system.cpu.dcache.WriteReq_miss_latency::total 1108800961999                       # number of WriteReq miss cycles
system.cpu.dcache.WriteReq_accesses::.cpu.data     84336592                       # number of WriteReq accesses(hits+misses)
system.cpu.dcache.WriteReq_accesses::total     84336592                       # number of WriteReq accesses(hits+misses)
system.cpu.dcache.WriteReq_miss_rate::.cpu.data     0.124818                       # miss rate for WriteReq accesses
system.cpu.dcache.WriteReq_miss_rate::total     0.124818                       # miss rate for WriteReq accesses
system.cpu.dcache.WriteReq_avg_miss_latency::.cpu.data 105331.816498                       # average WriteReq miss latency
system.cpu.dcache.WriteReq_avg_miss_latency::total 105331.816498                       # average WriteReq miss latency
system.cpu.dcache.WriteReq_mshr_hits::.cpu.data      5260508                       # number of WriteReq MSHR hits
system.cpu.dcache.WriteReq_mshr_hits::total      5260508                       # number of WriteReq MSHR hits
system.cpu.dcache.WriteReq_mshr_misses::.cpu.data      5266235                       # number of WriteReq MSHR misses
system.cpu.dcache.WriteReq_mshr_misses::total      5266235                       # number of WriteReq MSHR misses
system.cpu.dcache.WriteReq_mshr_miss_latency::.cpu.data 541429825000                       # number of WriteReq MSHR miss cycles
system.cpu.dcache.WriteReq_mshr_miss_latency::total 541429825000                       # number of WriteReq MSHR miss cycles
system.cpu.dcache.WriteReq_mshr_miss_rate::.cpu.data     0.062443                       # mshr miss rate for WriteReq accesses
system.cpu.dcache.WriteReq_mshr_miss_rate::total     0.062443                       # mshr miss rate for WriteReq accesses
system.cpu.dcache.WriteReq_avg_mshr_miss_latency::.cpu.data 102811.557973                       # average WriteReq mshr miss latency
system.cpu.dcache.WriteReq_avg_mshr_miss_latency::total 102811.557973                       # average WriteReq mshr miss latency
system.cpu.dcache.SoftPFReq_hits::.cpu.data           36                       # number of SoftPFReq hits
system.cpu.dcache.SoftPFReq_hits::total            36                       # number of SoftPFReq hits
system.cpu.dcache.SoftPFReq_misses::.cpu.data           35                       # number of SoftPFReq misses
system.cpu.dcache.SoftPFReq_misses::total           35                       # number of SoftPFReq misses
system.cpu.dcache.SoftPFReq_accesses::.cpu.data           71                       # number of SoftPFReq accesses(hits+misses)
system.cpu.dcache.SoftPFReq_accesses::total           71                       # number of SoftPFReq accesses(hits+misses)
system.cpu.dcache.SoftPFReq_miss_rate::.cpu.data     0.492958                       # miss rate for SoftPFReq accesses
system.cpu.dcache.SoftPFReq_miss_rate::total     0.492958                       # miss rate for SoftPFReq accesses
system.cpu.dcache.SoftPFReq_mshr_misses::.cpu.data           32                       # number of SoftPFReq MSHR misses
system.cpu.dcache.SoftPFReq_mshr_misses::total           32                       # number of SoftPFReq MSHR misses
system.cpu.dcache.SoftPFReq_mshr_miss_latency::.cpu.data      3090000                       # number of SoftPFReq MSHR miss cycles
system.cpu.dcache.SoftPFReq_mshr_miss_latency::total      3090000                       # number of SoftPFReq MSHR miss cycles
system.cpu.dcache.SoftPFReq_mshr_miss_rate::.cpu.data     0.450704                       # mshr miss rate for SoftPFReq accesses
system.cpu.dcache.SoftPFReq_mshr_miss_rate::total     0.450704                       # mshr miss rate for SoftPFReq accesses
system.cpu.dcache.SoftPFReq_avg_mshr_miss_latency::.cpu.data 96562.500000                       # average SoftPFReq mshr miss latency
system.cpu.dcache.SoftPFReq_avg_mshr_miss_latency::total 96562.500000                       # average SoftPFReq mshr miss latency
system.cpu.dcache.LoadLockedReq_hits::.cpu.data           34                       # number of LoadLockedReq hits
system.cpu.dcache.LoadLockedReq_hits::total           34                       # number of LoadLockedReq hits
system.cpu.dcache.LoadLockedReq_accesses::.cpu.data           34                       # number of LoadLockedReq accesses(hits+misses)
system.cpu.dcache.LoadLockedReq_accesses::total           34                       # number of LoadLockedReq accesses(hits+misses)
system.cpu.dcache.StoreCondReq_hits::.cpu.data           34                       # number of StoreCondReq hits
system.cpu.dcache.StoreCondReq_hits::total           34                       # number of StoreCondReq hits
system.cpu.dcache.StoreCondReq_accesses::.cpu.data           34                       # number of StoreCondReq accesses(hits+misses)
system.cpu.dcache.StoreCondReq_accesses::total           34                       # number of StoreCondReq accesses(hits+misses)
system.cpu.dcache.power_state.pwrStateResidencyTicks::UNDEFINED 705334126000                       # Cumulative time (in ticks) in various power states
system.cpu.dcache.tags.tagsinuse           511.876365                       # Cycle average of tags in use
system.cpu.dcache.tags.total_refs            81120191                       # Total number of references to valid blocks.
system.cpu.dcache.tags.sampled_refs           5269923                       # Sample count of references to valid blocks.
system.cpu.dcache.tags.avg_refs             15.393051                       # Average number of references to valid blocks.
system.cpu.dcache.tags.warmup_cycle            223000                       # Cycle when the warmup percentage was hit.
system.cpu.dcache.tags.occ_blocks::.cpu.data   511.876365                       # Average occupied blocks per requestor
system.cpu.dcache.tags.occ_percent::.cpu.data     0.999759                       # Average percentage of cache occupancy
system.cpu.dcache.tags.occ_percent::total     0.999759                       # Average percentage of cache occupancy
system.cpu.dcache.tags.occ_task_id_blocks::1024          512                       # Occupied blocks per task id
system.cpu.dcache.tags.age_task_id_blocks_1024::0           75                       # Occupied blocks per task id
system.cpu.dcache.tags.age_task_id_blocks_1024::1          437                       # Occupied blocks per task id
system.cpu.dcache.tags.occ_task_id_percent::1024            1                       # Percentage of cache occupancy per task id
system.cpu.dcache.tags.tag_accesses          91650663                       # Number of tag accesses
system.cpu.dcache.tags.data_accesses         91650663                       # Number of data accesses
system.cpu.dcache.tags.power_state.pwrStateResidencyTicks::UNDEFINED 705334126000                       # Cumulative time (in ticks) in various power states
system.cpu.dtb.instHits                             0                       # ITB inst hits
system.cpu.dtb.instMisses                           0                       # ITB inst misses
system.cpu.dtb.readHits                             0                       # DTB read hits
system.cpu.dtb.readMisses                           0                       # DTB read misses
system.cpu.dtb.writeHits                            0                       # DTB write hits
system.cpu.dtb.writeMisses                          0                       # DTB write misses
system.cpu.dtb.inserts                              0                       # Number of times an entry is inserted into the TLB
system.cpu.dtb.flushTlb                             0                       # Number of times complete TLB was flushed
system.cpu.dtb.flushTlbMva                          0                       # Number of times TLB was flushed by MVA
system.cpu.dtb.flushTlbMvaAsid                      0                       # Number of times TLB was flushed by MVA & ASID
system.cpu.dtb.flushTlbAsid                         0                       # Number of times TLB was flushed by ASID
system.cpu.dtb.flushedEntries                       0                       # Number of entries that have been flushed from TLB
system.cpu.dtb.alignFaults                          0                       # Number of TLB faults due to alignment restrictions
system.cpu.dtb.prefetchFaults                       0                       # Number of TLB faults due to prefetch
system.cpu.dtb.domainFaults                         0                       # Number of TLB faults due to domain restrictions
system.cpu.dtb.permsFaults                          0                       # Number of TLB faults due to permissions restrictions
system.cpu.dtb.readAccesses                         0                       # DTB read accesses
system.cpu.dtb.writeAccesses                        0                       # DTB write accesses
system.cpu.dtb.instAccesses                         0                       # ITB inst accesses
system.cpu.dtb.hits                                 0                       # Total TLB (inst and data) hits
system.cpu.dtb.misses                               0                       # Total TLB (inst and data) misses
system.cpu.dtb.accesses                             0                       # Total TLB (inst and data) accesses
system.cpu.dtb.stage2_mmu.stage2_tlb.instHits            0                       # ITB inst hits
system.cpu.dtb.stage2_mmu.stage2_tlb.instMisses            0                       # ITB inst misses
system.cpu.dtb.stage2_mmu.stage2_tlb.readHits            0                       # DTB read hits
system.cpu.dtb.stage2_mmu.stage2_tlb.readMisses            0                       # DTB read misses
system.cpu.dtb.stage2_mmu.stage2_tlb.writeHits            0                       # DTB write hits
system.cpu.dtb.stage2_mmu.stage2_tlb.writeMisses            0                       # DTB write misses
system.cpu.dtb.stage2_mmu.stage2_tlb.inserts            0                       # Number of times an entry is inserted into the TLB
system.cpu.dtb.stage2_mmu.stage2_tlb.flushTlb            0                       # Number of times complete TLB was flushed
system.cpu.dtb.stage2_mmu.stage2_tlb.flushTlbMva            0                       # Number of times TLB was flushed by MVA
system.cpu.dtb.stage2_mmu.stage2_tlb.flushTlbMvaAsid            0                       # Number of times TLB was flushed by MVA & ASID
system.cpu.dtb.stage2_mmu.stage2_tlb.flushTlbAsid            0                       # Number of times TLB was flushed by ASID
system.cpu.dtb.stage2_mmu.stage2_tlb.flushedEntries            0                       # Number of entries that have been flushed from TLB
system.cpu.dtb.stage2_mmu.stage2_tlb.alignFaults            0                       # Number of TLB faults due to alignment restrictions
system.cpu.dtb.stage2_mmu.stage2_tlb.prefetchFaults            0                       # Number of TLB faults due to prefetch
system.cpu.dtb.stage2_mmu.stage2_tlb.domainFaults            0                       # Number of TLB faults due to domain restrictions
system.cpu.dtb.stage2_mmu.stage2_tlb.permsFaults            0                       # Number of TLB faults due to permissions restrictions
system.cpu.dtb.stage2_mmu.stage2_tlb.readAccesses            0                       # DTB read accesses
system.cpu.dtb.stage2_mmu.stage2_tlb.writeAccesses            0                       # DTB write accesses
system.cpu.dtb.stage2_mmu.stage2_tlb.instAccesses            0                       # ITB inst accesses
system.cpu.dtb.stage2_mmu.stage2_tlb.hits            0                       # Total TLB (inst and data) hits
system.cpu.dtb.stage2_mmu.stage2_tlb.misses            0                       # Total TLB (inst and data) misses
system.cpu.dtb.stage2_mmu.stage2_tlb.accesses            0                       # Total TLB (inst and data) accesses
system.cpu.dtb.stage2_mmu.stage2_tlb.walker.walks            0                       # Table walker walks requested
system.cpu.dtb.stage2_mmu.stage2_tlb.walker.requestOrigin_Requested::Data            0                       # Table walker requests started/completed, data/inst
system.cpu.dtb.stage2_mmu.stage2_tlb.walker.requestOrigin_Requested::Inst            0                       # Table walker requests started/completed, data/inst
system.cpu.dtb.stage2_mmu.stage2_tlb.walker.requestOrigin_Requested::total            0                       # Table walker requests started/completed, data/inst
system.cpu.dtb.stage2_mmu.stage2_tlb.walker.requestOrigin_Completed::Data            0                       # Table walker requests started/completed, data/inst
system.cpu.dtb.stage2_mmu.stage2_tlb.walker.requestOrigin_Completed::Inst            0                       # Table walker requests started/completed, data/inst
system.cpu.dtb.stage2_mmu.stage2_tlb.walker.requestOrigin_Completed::total            0                       # Table walker requests started/completed, data/inst
system.cpu.dtb.stage2_mmu.stage2_tlb.walker.requestOrigin::total            0                       # Table walker requests started/completed, data/inst
system.cpu.dtb.stage2_mmu.stage2_tlb.walker.power_state.pwrStateResidencyTicks::UNDEFINED 705334126000                       # Cumulative time (in ticks) in various power states
system.cpu.dtb.walker.walks                         0                       # Table walker walks requested
system.cpu.dtb.walker.requestOrigin_Requested::Data            0                       # Table walker requests started/completed, data/inst
system.cpu.dtb.walker.requestOrigin_Requested::Inst            0                       # Table walker requests started/completed, data/inst
system.cpu.dtb.walker.requestOrigin_Requested::total            0                       # Table walker requests started/completed, data/inst
system.cpu.dtb.walker.requestOrigin_Completed::Data            0                       # Table walker requests started/completed, data/inst
system.cpu.dtb.walker.requestOrigin_Completed::Inst            0                       # Table walker requests started/completed, data/inst
system.cpu.dtb.walker.requestOrigin_Completed::total            0                       # Table walker requests started/completed, data/inst
system.cpu.dtb.walker.requestOrigin::total            0                       # Table walker requests started/completed, data/inst
system.cpu.dtb.walker.power_state.pwrStateResidencyTicks::UNDEFINED 705334126000                       # Cumulative time (in ticks) in various power states
system.cpu.fetch2.intInstructions            45070928                       # Number of integer instructions successfully decoded
system.cpu.fetch2.fpInstructions                    0                       # Number of floating point instructions successfully decoded
system.cpu.fetch2.vecInstructions                   0                       # Number of SIMD instructions successfully decoded
system.cpu.fetch2.loadInstructions            2086384                       # Number of memory load instructions successfully decoded
system.cpu.fetch2.storeInstructions            169100                       # Number of memory store instructions successfully decoded
system.cpu.fetch2.amoInstructions                   0                       # Number of memory atomic instructions successfully decoded
system.cpu.icache.demand_hits::.cpu.inst     32144734                       # number of demand (read+write) hits
system.cpu.icache.demand_hits::total         32144734                       # number of demand (read+write) hits
system.cpu.icache.overall_hits::.cpu.inst     32144734                       # number of overall hits
system.cpu.icache.overall_hits::total        32144734                       # number of overall hits
system.cpu.icache.demand_misses::.cpu.inst          679                       # number of demand (read+write) misses
system.cpu.icache.demand_misses::total            679                       # number of demand (read+write) misses
system.cpu.icache.overall_misses::.cpu.inst          679                       # number of overall misses
system.cpu.icache.overall_misses::total           679                       # number of overall misses
system.cpu.icache.demand_miss_latency::.cpu.inst     64789000                       # number of demand (read+write) miss cycles
system.cpu.icache.demand_miss_latency::total     64789000                       # number of demand (read+write) miss cycles
system.cpu.icache.overall_miss_latency::.cpu.inst     64789000                       # number of overall miss cycles
system.cpu.icache.overall_miss_latency::total     64789000                       # number of overall miss cycles
system.cpu.icache.demand_accesses::.cpu.inst     32145413                       # number of demand (read+write) accesses
system.cpu.icache.demand_accesses::total     32145413                       # number of demand (read+write) accesses
system.cpu.icache.overall_accesses::.cpu.inst     32145413                       # number of overall (read+write) accesses
system.cpu.icache.overall_accesses::total     32145413                       # number of overall (read+write) accesses
system.cpu.icache.demand_miss_rate::.cpu.inst     0.000021                       # miss rate for demand accesses
system.cpu.icache.demand_miss_rate::total     0.000021                       # miss rate for demand accesses
system.cpu.icache.overall_miss_rate::.cpu.inst     0.000021                       # miss rate for overall accesses
system.cpu.icache.overall_miss_rate::total     0.000021                       # miss rate for overall accesses
system.cpu.icache.demand_avg_miss_latency::.cpu.inst 95418.262150                       # average overall miss latency
system.cpu.icache.demand_avg_miss_latency::total 95418.262150                       # average overall miss latency
system.cpu.icache.overall_avg_miss_latency::.cpu.inst 95418.262150                       # average overall miss latency
system.cpu.icache.overall_avg_miss_latency::total 95418.262150                       # average overall miss latency
system.cpu.icache.blocked_cycles::no_mshrs            0                       # number of cycles access was blocked
system.cpu.icache.blocked_cycles::no_targets            0                       # number of cycles access was blocked
system.cpu.icache.blocked::no_mshrs                 0                       # number of cycles access was blocked
system.cpu.icache.blocked::no_targets               0                       # number of cycles access was blocked
system.cpu.icache.avg_blocked_cycles::no_mshrs          nan                       # average number of cycles each access was blocked
system.cpu.icache.avg_blocked_cycles::no_targets          nan                       # average number of cycles each access was blocked
system.cpu.icache.writebacks::.writebacks          309                       # number of writebacks
system.cpu.icache.writebacks::total               309                       # number of writebacks
system.cpu.icache.demand_mshr_misses::.cpu.inst          679                       # number of demand (read+write) MSHR misses
system.cpu.icache.demand_mshr_misses::total          679                       # number of demand (read+write) MSHR misses
system.cpu.icache.overall_mshr_misses::.cpu.inst          679                       # number of overall MSHR misses
system.cpu.icache.overall_mshr_misses::total          679                       # number of overall MSHR misses
system.cpu.icache.demand_mshr_miss_latency::.cpu.inst     63431000                       # number of demand (read+write) MSHR miss cycles
system.cpu.icache.demand_mshr_miss_latency::total     63431000                       # number of demand (read+write) MSHR miss cycles
system.cpu.icache.overall_mshr_miss_latency::.cpu.inst     63431000                       # number of overall MSHR miss cycles
system.cpu.icache.overall_mshr_miss_latency::total     63431000                       # number of overall MSHR miss cycles
system.cpu.icache.demand_mshr_miss_rate::.cpu.inst     0.000021                       # mshr miss rate for demand accesses
system.cpu.icache.demand_mshr_miss_rate::total     0.000021                       # mshr miss rate for demand accesses
system.cpu.icache.overall_mshr_miss_rate::.cpu.inst     0.000021                       # mshr miss rate for overall accesses
system.cpu.icache.overall_mshr_miss_rate::total     0.000021                       # mshr miss rate for overall accesses
system.cpu.icache.demand_avg_mshr_miss_latency::.cpu.inst 93418.262150                       # average overall mshr miss latency
system.cpu.icache.demand_avg_mshr_miss_latency::total 93418.262150                       # average overall mshr miss latency
system.cpu.icache.overall_avg_mshr_miss_latency::.cpu.inst 93418.262150                       # average overall mshr miss latency
system.cpu.icache.overall_avg_mshr_miss_latency::total 93418.262150                       # average overall mshr miss latency
system.cpu.icache.replacements                    309                       # number of replacements
system.cpu.icache.ReadReq_hits::.cpu.inst     32144734                       # number of ReadReq hits
system.cpu.icache.ReadReq_hits::total        32144734                       # number of ReadReq hits
system.cpu.icache.ReadReq_misses::.cpu.inst          679                       # number of ReadReq misses
system.cpu.icache.ReadReq_misses::total           679                       # number of ReadReq misses
system.cpu.icache.ReadReq_miss_latency::.cpu.inst     64789000                       # number of ReadReq miss cycles
system.cpu.icache.ReadReq_miss_latency::total     64789000                       # number of ReadReq miss cycles
system.cpu.icache.ReadReq_accesses::.cpu.inst     32145413                       # number of ReadReq accesses(hits+misses)
system.cpu.icache.ReadReq_accesses::total     32145413                       # number of ReadReq accesses(hits+misses)
system.cpu.icache.ReadReq_miss_rate::.cpu.inst     0.000021                       # miss rate for ReadReq accesses
system.cpu.icache.ReadReq_miss_rate::total     0.000021                       # miss rate for ReadReq accesses
system.cpu.icache.ReadReq_avg_miss_latency::.cpu.inst 95418.262150                       # average ReadReq miss latency
system.cpu.icache.ReadReq_avg_miss_latency::total 95418.262150                       # average ReadReq miss latency
system.cpu.icache.ReadReq_mshr_misses::.cpu.inst          679                       # number of ReadReq MSHR misses
system.cpu.icache.ReadReq_mshr_misses::total          679                       # number of ReadReq MSHR misses
system.cpu.icache.ReadReq_mshr_miss_latency::.cpu.inst     63431000                       # number of ReadReq MSHR miss cycles
system.cpu.icache.ReadReq_mshr_miss_latency::total     63431000                       # number of ReadReq MSHR miss cycles
system.cpu.icache.ReadReq_mshr_miss_rate::.cpu.inst     0.000021                       # mshr miss rate for ReadReq accesses
system.cpu.icache.ReadReq_mshr_miss_rate::total     0.000021                       # mshr miss rate for ReadReq accesses
system.cpu.icache.ReadReq_avg_mshr_miss_latency::.cpu.inst 93418.262150                       # average ReadReq mshr miss latency
system.cpu.icache.ReadReq_avg_mshr_miss_latency::total 93418.262150                       # average ReadReq mshr miss latency
system.cpu.icache.power_state.pwrStateResidencyTicks::UNDEFINED 705334126000                       # Cumulative time (in ticks) in various power states
system.cpu.icache.tags.tagsinuse           323.939868                       # Cycle average of tags in use
system.cpu.icache.tags.total_refs            32145413                       # Total number of references to valid blocks.
system.cpu.icache.tags.sampled_refs               679                       # Sample count of references to valid blocks.
system.cpu.icache.tags.avg_refs          47342.287187                       # Average number of references to valid blocks.
system.cpu.icache.tags.warmup_cycle            108000                       # Cycle when the warmup percentage was hit.
system.cpu.icache.tags.occ_blocks::.cpu.inst   323.939868                       # Average occupied blocks per requestor
system.cpu.icache.tags.occ_percent::.cpu.inst     0.632695                       # Average percentage of cache occupancy
system.cpu.icache.tags.occ_percent::total     0.632695                       # Average percentage of cache occupancy
system.cpu.icache.tags.occ_task_id_blocks::1024          370                       # Occupied blocks per task id
system.cpu.icache.tags.age_task_id_blocks_1024::4          370                       # Occupied blocks per task id
system.cpu.icache.tags.occ_task_id_percent::1024     0.722656                       # Percentage of cache occupancy per task id
system.cpu.icache.tags.tag_accesses          32146092                       # Number of tag accesses
system.cpu.icache.tags.data_accesses         32146092                       # Number of data accesses
system.cpu.icache.tags.power_state.pwrStateResidencyTicks::UNDEFINED 705334126000                       # Cumulative time (in ticks) in various power states
system.cpu.itb.instHits                             0                       # ITB inst hits
system.cpu.itb.instMisses                           0                       # ITB inst misses
system.cpu.itb.readHits                             0                       # DTB read hits
system.cpu.itb.readMisses                           0                       # DTB read misses
system.cpu.itb.writeHits                            0                       # DTB write hits
system.cpu.itb.writeMisses                          0                       # DTB write misses
system.cpu.itb.inserts                              0                       # Number of times an entry is inserted into the TLB
system.cpu.itb.flushTlb                             0                       # Number of times complete TLB was flushed
system.cpu.itb.flushTlbMva                          0                       # Number of times TLB was flushed by MVA
system.cpu.itb.flushTlbMvaAsid                      0                       # Number of times TLB was flushed by MVA & ASID
system.cpu.itb.flushTlbAsid                         0                       # Number of times TLB was flushed by ASID
system.cpu.itb.flushedEntries                       0                       # Number of entries that have been flushed from TLB
system.cpu.itb.alignFaults                          0                       # Number of TLB faults due to alignment restrictions
system.cpu.itb.prefetchFaults                       0                       # Number of TLB faults due to prefetch
system.cpu.itb.domainFaults                         0                       # Number of TLB faults due to domain restrictions
system.cpu.itb.permsFaults                          0                       # Number of TLB faults due to permissions restrictions
system.cpu.itb.readAccesses                         0                       # DTB read accesses
system.cpu.itb.writeAccesses                        0                       # DTB write accesses
system.cpu.itb.instAccesses                         0                       # ITB inst accesses
system.cpu.itb.hits                                 0                       # Total TLB (inst and data) hits
system.cpu.itb.misses                               0                       # Total TLB (inst and data) misses
system.cpu.itb.accesses                             0                       # Total TLB (inst and data) accesses
system.cpu.itb.stage2_mmu.stage2_tlb.instHits            0                       # ITB inst hits
system.cpu.itb.stage2_mmu.stage2_tlb.instMisses            0                       # ITB inst misses
system.cpu.itb.stage2_mmu.stage2_tlb.readHits            0                       # DTB read hits
system.cpu.itb.stage2_mmu.stage2_tlb.readMisses            0                       # DTB read misses
system.cpu.itb.stage2_mmu.stage2_tlb.writeHits            0                       # DTB write hits
system.cpu.itb.stage2_mmu.stage2_tlb.writeMisses            0                       # DTB write misses
system.cpu.itb.stage2_mmu.stage2_tlb.inserts            0                       # Number of times an entry is inserted into the TLB
system.cpu.itb.stage2_mmu.stage2_tlb.flushTlb            0                       # Number of times complete TLB was flushed
system.cpu.itb.stage2_mmu.stage2_tlb.flushTlbMva            0                       # Number of times TLB was flushed by MVA
system.cpu.itb.stage2_mmu.stage2_tlb.flushTlbMvaAsid            0                       # Number of times TLB was flushed by MVA & ASID
system.cpu.itb.stage2_mmu.stage2_tlb.flushTlbAsid            0                       # Number of times TLB was flushed by ASID
system.cpu.itb.stage2_mmu.stage2_tlb.flushedEntries            0                       # Number of entries that have been flushed from TLB
system.cpu.itb.stage2_mmu.stage2_tlb.alignFaults            0                       # Number of TLB faults due to alignment restrictions
system.cpu.itb.stage2_mmu.stage2_tlb.prefetchFaults            0                       # Number of TLB faults due to prefetch
system.cpu.itb.stage2_mmu.stage2_tlb.domainFaults            0                       # Number of TLB faults due to domain restrictions
system.cpu.itb.stage2_mmu.stage2_tlb.permsFaults            0                       # Number of TLB faults due to permissions restrictions
system.cpu.itb.stage2_mmu.stage2_tlb.readAccesses            0                       # DTB read accesses
system.cpu.itb.stage2_mmu.stage2_tlb.writeAccesses            0                       # DTB write accesses
system.cpu.itb.stage2_mmu.stage2_tlb.instAccesses            0                       # ITB inst accesses
system.cpu.itb.stage2_mmu.stage2_tlb.hits            0                       # Total TLB (inst and data) hits
system.cpu.itb.stage2_mmu.stage2_tlb.misses            0                       # Total TLB (inst and data) misses
system.cpu.itb.stage2_mmu.stage2_tlb.accesses            0                       # Total TLB (inst and data) accesses
system.cpu.itb.stage2_mmu.stage2_tlb.walker.walks            0                       # Table walker walks requested
system.cpu.itb.stage2_mmu.stage2_tlb.walker.requestOrigin_Requested::Data            0                       # Table walker requests started/completed, data/inst
system.cpu.itb.stage2_mmu.stage2_tlb.walker.requestOrigin_Requested::Inst            0                       # Table walker requests started/completed, data/inst
system.cpu.itb.stage2_mmu.stage2_tlb.walker.requestOrigin_Requested::total            0                       # Table walker requests started/completed, data/inst
system.cpu.itb.stage2_mmu.stage2_tlb.walker.requestOrigin_Completed::Data            0                       # Table walker requests started/completed, data/inst
system.cpu.itb.stage2_mmu.stage2_tlb.walker.requestOrigin_Completed::Inst            0                       # Table walker requests started/completed, data/inst
system.cpu.itb.stage2_mmu.stage2_tlb.walker.requestOrigin_Completed::total            0                       # Table walker requests started/completed, data/inst
system.cpu.itb.stage2_mmu.stage2_tlb.walker.requestOrigin::total            0                       # Table walker requests started/completed, data/inst
system.cpu.itb.stage2_mmu.stage2_tlb.walker.power_state.pwrStateResidencyTicks::UNDEFINED 705334126000                       # Cumulative time (in ticks) in various power states
system.cpu.itb.walker.walks                         0                       # Table walker walks requested
system.cpu.itb.walker.requestOrigin_Requested::Data            0                       # Table walker requests started/completed, data/inst
system.cpu.itb.walker.requestOrigin_Requested::Inst            0                       # Table walker requests started/completed, data/inst
system.cpu.itb.walker.requestOrigin_Requested::total            0                       # Table walker requests started/completed, data/inst
system.cpu.itb.walker.requestOrigin_Completed::Data            0                       # Table walker requests started/completed, data/inst
system.cpu.itb.walker.requestOrigin_Completed::Inst            0                       # Table walker requests started/completed, data/inst
system.cpu.itb.walker.requestOrigin_Completed::total            0                       # Table walker requests started/completed, data/inst
system.cpu.itb.walker.requestOrigin::total            0                       # Table walker requests started/completed, data/inst
system.cpu.itb.walker.power_state.pwrStateResidencyTicks::UNDEFINED 705334126000                       # Cumulative time (in ticks) in various power states
system.cpu.power_state.pwrStateResidencyTicks::ON 705334126000                       # Cumulative time (in ticks) in various power states
system.cpu.thread_0.numInsts                100000001                       # Number of Instructions committed
system.cpu.thread_0.numOps                  184218784                       # Number of Ops committed
system.cpu.thread_0.numMemRefs                      0                       # Number of Memory References
system.cpu_clk_domain.clock                      1000                       # Clock period in ticks
system.cpu_voltage_domain.voltage                   1                       # Voltage in Volts
system.l2.demand_hits::.cpu.inst                   88                       # number of demand (read+write) hits
system.l2.demand_hits::.cpu.data                 6615                       # number of demand (read+write) hits
system.l2.demand_hits::total                     6703                       # number of demand (read+write) hits
system.l2.overall_hits::.cpu.inst                  88                       # number of overall hits
system.l2.overall_hits::.cpu.data                6615                       # number of overall hits
system.l2.overall_hits::total                    6703                       # number of overall hits
system.l2.demand_misses::.cpu.inst                591                       # number of demand (read+write) misses
system.l2.demand_misses::.cpu.data            5263308                       # number of demand (read+write) misses
system.l2.demand_misses::total                5263899                       # number of demand (read+write) misses
system.l2.overall_misses::.cpu.inst               591                       # number of overall misses
system.l2.overall_misses::.cpu.data           5263308                       # number of overall misses
system.l2.overall_misses::total               5263899                       # number of overall misses
system.l2.demand_miss_latency::.cpu.inst     59495000                       # number of demand (read+write) miss cycles
system.l2.demand_miss_latency::.cpu.data 525582315000                       # number of demand (read+write) miss cycles
system.l2.demand_miss_latency::total     525641810000                       # number of demand (read+write) miss cycles
system.l2.overall_miss_latency::.cpu.inst     59495000                       # number of overall miss cycles
system.l2.overall_miss_latency::.cpu.data 525582315000                       # number of overall miss cycles
system.l2.overall_miss_latency::total    525641810000                       # number of overall miss cycles
system.l2.demand_accesses::.cpu.inst              679                       # number of demand (read+write) accesses
system.l2.demand_accesses::.cpu.data          5269923                       # number of demand (read+write) accesses
system.l2.demand_accesses::total              5270602                       # number of demand (read+write) accesses
system.l2.overall_accesses::.cpu.inst             679                       # number of overall (read+write) accesses
system.l2.overall_accesses::.cpu.data         5269923                       # number of overall (read+write) accesses
system.l2.overall_accesses::total             5270602                       # number of overall (read+write) accesses
system.l2.demand_miss_rate::.cpu.inst        0.870398                       # miss rate for demand accesses
system.l2.demand_miss_rate::.cpu.data        0.998745                       # miss rate for demand accesses
system.l2.demand_miss_rate::total            0.998728                       # miss rate for demand accesses
system.l2.overall_miss_rate::.cpu.inst       0.870398                       # miss rate for overall accesses
system.l2.overall_miss_rate::.cpu.data       0.998745                       # miss rate for overall accesses
system.l2.overall_miss_rate::total           0.998728                       # miss rate for overall accesses
system.l2.demand_avg_miss_latency::.cpu.inst 100668.358714                       # average overall miss latency
system.l2.demand_avg_miss_latency::.cpu.data 99857.791906                       # average overall miss latency
system.l2.demand_avg_miss_latency::total 99857.882912                       # average overall miss latency
system.l2.overall_avg_miss_latency::.cpu.inst 100668.358714                       # average overall miss latency
system.l2.overall_avg_miss_latency::.cpu.data 99857.791906                       # average overall miss latency
system.l2.overall_avg_miss_latency::total 99857.882912                       # average overall miss latency
system.l2.blocked_cycles::no_mshrs                  0                       # number of cycles access was blocked
system.l2.blocked_cycles::no_targets                0                       # number of cycles access was blocked
system.l2.blocked::no_mshrs                         0                       # number of cycles access was blocked
system.l2.blocked::no_targets                       0                       # number of cycles access was blocked
system.l2.avg_blocked_cycles::no_mshrs            nan                       # average number of cycles each access was blocked
system.l2.avg_blocked_cycles::no_targets          nan                       # average number of cycles each access was blocked
system.l2.writebacks::.writebacks             5197515                       # number of writebacks
system.l2.writebacks::total                   5197515                       # number of writebacks
system.l2.demand_mshr_hits::.cpu.data               6                       # number of demand (read+write) MSHR hits
system.l2.demand_mshr_hits::total                   6                       # number of demand (read+write) MSHR hits
system.l2.overall_mshr_hits::.cpu.data              6                       # number of overall MSHR hits
system.l2.overall_mshr_hits::total                  6                       # number of overall MSHR hits
system.l2.demand_mshr_misses::.cpu.inst           591                       # number of demand (read+write) MSHR misses
system.l2.demand_mshr_misses::.cpu.data       5263302                       # number of demand (read+write) MSHR misses
system.l2.demand_mshr_misses::total           5263893                       # number of demand (read+write) MSHR misses
system.l2.overall_mshr_misses::.cpu.inst          591                       # number of overall MSHR misses
system.l2.overall_mshr_misses::.cpu.data      5263302                       # number of overall MSHR misses
system.l2.overall_mshr_misses::total          5263893                       # number of overall MSHR misses
system.l2.demand_mshr_miss_latency::.cpu.inst     47675000                       # number of demand (read+write) MSHR miss cycles
system.l2.demand_mshr_miss_latency::.cpu.data 420315772000                       # number of demand (read+write) MSHR miss cycles
system.l2.demand_mshr_miss_latency::total 420363447000                       # number of demand (read+write) MSHR miss cycles
system.l2.overall_mshr_miss_latency::.cpu.inst     47675000                       # number of overall MSHR miss cycles
system.l2.overall_mshr_miss_latency::.cpu.data 420315772000                       # number of overall MSHR miss cycles
system.l2.overall_mshr_miss_latency::total 420363447000                       # number of overall MSHR miss cycles
system.l2.demand_mshr_miss_rate::.cpu.inst     0.870398                       # mshr miss rate for demand accesses
system.l2.demand_mshr_miss_rate::.cpu.data     0.998744                       # mshr miss rate for demand accesses
system.l2.demand_mshr_miss_rate::total       0.998727                       # mshr miss rate for demand accesses
system.l2.overall_mshr_miss_rate::.cpu.inst     0.870398                       # mshr miss rate for overall accesses
system.l2.overall_mshr_miss_rate::.cpu.data     0.998744                       # mshr miss rate for overall accesses
system.l2.overall_mshr_miss_rate::total      0.998727                       # mshr miss rate for overall accesses
system.l2.demand_avg_mshr_miss_latency::.cpu.inst 80668.358714                       # average overall mshr miss latency
system.l2.demand_avg_mshr_miss_latency::.cpu.data 79857.810173                       # average overall mshr miss latency
system.l2.demand_avg_mshr_miss_latency::total 79857.901177                       # average overall mshr miss latency
system.l2.overall_avg_mshr_miss_latency::.cpu.inst 80668.358714                       # average overall mshr miss latency
system.l2.overall_avg_mshr_miss_latency::.cpu.data 79857.810173                       # average overall mshr miss latency
system.l2.overall_avg_mshr_miss_latency::total 79857.901177                       # average overall mshr miss latency
system.l2.replacements                        5198442                       # number of replacements
system.l2.WritebackDirty_hits::.writebacks      5266268                       # number of WritebackDirty hits
system.l2.WritebackDirty_hits::total          5266268                       # number of WritebackDirty hits
system.l2.WritebackDirty_accesses::.writebacks      5266268                       # number of WritebackDirty accesses(hits+misses)
system.l2.WritebackDirty_accesses::total      5266268                       # number of WritebackDirty accesses(hits+misses)
system.l2.WritebackClean_hits::.writebacks          301                       # number of WritebackClean hits
system.l2.WritebackClean_hits::total              301                       # number of WritebackClean hits
system.l2.WritebackClean_accesses::.writebacks          301                       # number of WritebackClean accesses(hits+misses)
system.l2.WritebackClean_accesses::total          301                       # number of WritebackClean accesses(hits+misses)
system.l2.ReadExReq_hits::.cpu.data              3213                       # number of ReadExReq hits
system.l2.ReadExReq_hits::total                  3213                       # number of ReadExReq hits
system.l2.ReadExReq_misses::.cpu.data         5263022                       # number of ReadExReq misses
system.l2.ReadExReq_misses::total             5263022                       # number of ReadExReq misses
system.l2.ReadExReq_miss_latency::.cpu.data 525552640000                       # number of ReadExReq miss cycles
system.l2.ReadExReq_miss_latency::total  525552640000                       # number of ReadExReq miss cycles
system.l2.ReadExReq_accesses::.cpu.data       5266235                       # number of ReadExReq accesses(hits+misses)
system.l2.ReadExReq_accesses::total           5266235                       # number of ReadExReq accesses(hits+misses)
system.l2.ReadExReq_miss_rate::.cpu.data     0.999390                       # miss rate for ReadExReq accesses
system.l2.ReadExReq_miss_rate::total         0.999390                       # miss rate for ReadExReq accesses
system.l2.ReadExReq_avg_miss_latency::.cpu.data 99857.579923                       # average ReadExReq miss latency
system.l2.ReadExReq_avg_miss_latency::total 99857.579923                       # average ReadExReq miss latency
system.l2.ReadExReq_mshr_misses::.cpu.data      5263022                       # number of ReadExReq MSHR misses
system.l2.ReadExReq_mshr_misses::total        5263022                       # number of ReadExReq MSHR misses
system.l2.ReadExReq_mshr_miss_latency::.cpu.data 420292200000                       # number of ReadExReq MSHR miss cycles
system.l2.ReadExReq_mshr_miss_latency::total 420292200000                       # number of ReadExReq MSHR miss cycles
system.l2.ReadExReq_mshr_miss_rate::.cpu.data     0.999390                       # mshr miss rate for ReadExReq accesses
system.l2.ReadExReq_mshr_miss_rate::total     0.999390                       # mshr miss rate for ReadExReq accesses
system.l2.ReadExReq_avg_mshr_miss_latency::.cpu.data 79857.579923                       # average ReadExReq mshr miss latency
system.l2.ReadExReq_avg_mshr_miss_latency::total 79857.579923                       # average ReadExReq mshr miss latency
system.l2.ReadCleanReq_hits::.cpu.inst             88                       # number of ReadCleanReq hits
system.l2.ReadCleanReq_hits::total                 88                       # number of ReadCleanReq hits
system.l2.ReadCleanReq_misses::.cpu.inst          591                       # number of ReadCleanReq misses
system.l2.ReadCleanReq_misses::total              591                       # number of ReadCleanReq misses
system.l2.ReadCleanReq_miss_latency::.cpu.inst     59495000                       # number of ReadCleanReq miss cycles
system.l2.ReadCleanReq_miss_latency::total     59495000                       # number of ReadCleanReq miss cycles
system.l2.ReadCleanReq_accesses::.cpu.inst          679                       # number of ReadCleanReq accesses(hits+misses)
system.l2.ReadCleanReq_accesses::total            679                       # number of ReadCleanReq accesses(hits+misses)
system.l2.ReadCleanReq_miss_rate::.cpu.inst     0.870398                       # miss rate for ReadCleanReq accesses
system.l2.ReadCleanReq_miss_rate::total      0.870398                       # miss rate for ReadCleanReq accesses
system.l2.ReadCleanReq_avg_miss_latency::.cpu.inst 100668.358714                       # average ReadCleanReq miss latency
system.l2.ReadCleanReq_avg_miss_latency::total 100668.358714                       # average ReadCleanReq miss latency
system.l2.ReadCleanReq_mshr_misses::.cpu.inst          591                       # number of ReadCleanReq MSHR misses
system.l2.ReadCleanReq_mshr_misses::total          591                       # number of ReadCleanReq MSHR misses
system.l2.ReadCleanReq_mshr_miss_latency::.cpu.inst     47675000                       # number of ReadCleanReq MSHR miss cycles
system.l2.ReadCleanReq_mshr_miss_latency::total     47675000                       # number of ReadCleanReq MSHR miss cycles
system.l2.ReadCleanReq_mshr_miss_rate::.cpu.inst     0.870398                       # mshr miss rate for ReadCleanReq accesses
system.l2.ReadCleanReq_mshr_miss_rate::total     0.870398                       # mshr miss rate for ReadCleanReq accesses
system.l2.ReadCleanReq_avg_mshr_miss_latency::.cpu.inst 80668.358714                       # average ReadCleanReq mshr miss latency
system.l2.ReadCleanReq_avg_mshr_miss_latency::total 80668.358714                       # average ReadCleanReq mshr miss latency
system.l2.ReadSharedReq_hits::.cpu.data          3402                       # number of ReadSharedReq hits
system.l2.ReadSharedReq_hits::total              3402                       # number of ReadSharedReq hits
system.l2.ReadSharedReq_misses::.cpu.data          286                       # number of ReadSharedReq misses
system.l2.ReadSharedReq_misses::total             286                       # number of ReadSharedReq misses
system.l2.ReadSharedReq_miss_latency::.cpu.data     29675000                       # number of ReadSharedReq miss cycles
system.l2.ReadSharedReq_miss_latency::total     29675000                       # number of ReadSharedReq miss cycles
system.l2.ReadSharedReq_accesses::.cpu.data         3688                       # number of ReadSharedReq accesses(hits+misses)
system.l2.ReadSharedReq_accesses::total          3688                       # number of ReadSharedReq accesses(hits+misses)
system.l2.ReadSharedReq_miss_rate::.cpu.data     0.077549                       # miss rate for ReadSharedReq accesses
system.l2.ReadSharedReq_miss_rate::total     0.077549                       # miss rate for ReadSharedReq accesses
system.l2.ReadSharedReq_avg_miss_latency::.cpu.data 103758.741259                       # average ReadSharedReq miss latency
system.l2.ReadSharedReq_avg_miss_latency::total 103758.741259                       # average ReadSharedReq miss latency
system.l2.ReadSharedReq_mshr_hits::.cpu.data            6                       # number of ReadSharedReq MSHR hits
system.l2.ReadSharedReq_mshr_hits::total            6                       # number of ReadSharedReq MSHR hits
system.l2.ReadSharedReq_mshr_misses::.cpu.data          280                       # number of ReadSharedReq MSHR misses
system.l2.ReadSharedReq_mshr_misses::total          280                       # number of ReadSharedReq MSHR misses
system.l2.ReadSharedReq_mshr_miss_latency::.cpu.data     23572000                       # number of ReadSharedReq MSHR miss cycles
system.l2.ReadSharedReq_mshr_miss_latency::total     23572000                       # number of ReadSharedReq MSHR miss cycles
system.l2.ReadSharedReq_mshr_miss_rate::.cpu.data     0.075922                       # mshr miss rate for ReadSharedReq accesses
system.l2.ReadSharedReq_mshr_miss_rate::total     0.075922                       # mshr miss rate for ReadSharedReq accesses
system.l2.ReadSharedReq_avg_mshr_miss_latency::.cpu.data 84185.714286                       # average ReadSharedReq mshr miss latency
system.l2.ReadSharedReq_avg_mshr_miss_latency::total 84185.714286                       # average ReadSharedReq mshr miss latency
system.l2.power_state.pwrStateResidencyTicks::UNDEFINED 705334126000                       # Cumulative time (in ticks) in various power states
system.l2.tags.tagsinuse                 64641.543891                       # Cycle average of tags in use
system.l2.tags.total_refs                    10539693                       # Total number of references to valid blocks.
system.l2.tags.sampled_refs                   5263978                       # Sample count of references to valid blocks.
system.l2.tags.avg_refs                      2.002230                       # Average number of references to valid blocks.
system.l2.tags.warmup_cycle                     87000                       # Cycle when the warmup percentage was hit.
system.l2.tags.occ_blocks::.writebacks       0.830593                       # Average occupied blocks per requestor
system.l2.tags.occ_blocks::.cpu.inst         8.589662                       # Average occupied blocks per requestor
system.l2.tags.occ_blocks::.cpu.data     64632.123635                       # Average occupied blocks per requestor
system.l2.tags.occ_percent::.writebacks      0.000013                       # Average percentage of cache occupancy
system.l2.tags.occ_percent::.cpu.inst        0.000131                       # Average percentage of cache occupancy
system.l2.tags.occ_percent::.cpu.data        0.986208                       # Average percentage of cache occupancy
system.l2.tags.occ_percent::total            0.986352                       # Average percentage of cache occupancy
system.l2.tags.occ_task_id_blocks::1024         65536                       # Occupied blocks per task id
system.l2.tags.age_task_id_blocks_1024::0           74                       # Occupied blocks per task id
system.l2.tags.age_task_id_blocks_1024::1          680                       # Occupied blocks per task id
system.l2.tags.age_task_id_blocks_1024::2         6780                       # Occupied blocks per task id
system.l2.tags.age_task_id_blocks_1024::3        58002                       # Occupied blocks per task id
system.l2.tags.occ_task_id_percent::1024            1                       # Percentage of cache occupancy per task id
system.l2.tags.tag_accesses                  26343376                       # Number of tag accesses
system.l2.tags.data_accesses                 26343376                       # Number of data accesses
system.l2.tags.power_state.pwrStateResidencyTicks::UNDEFINED 705334126000                       # Cumulative time (in ticks) in various power states
system.mem_ctrls.avgPriority_.writebacks::samples   5197515.00                       # Average QoS priority value for accepted requests
system.mem_ctrls.avgPriority_.cpu.inst::samples       591.00                       # Average QoS priority value for accepted requests
system.mem_ctrls.avgPriority_.cpu.data::samples   5263302.00                       # Average QoS priority value for accepted requests
system.mem_ctrls.priorityMinLatency      0.000000018750                       # per QoS priority minimum request to response latency (s)
system.mem_ctrls.priorityMaxLatency      0.000557688500                       # per QoS priority maximum request to response latency (s)
system.mem_ctrls.numReadWriteTurnArounds       324369                       # Number of turnarounds from READ to WRITE
system.mem_ctrls.numWriteReadTurnArounds       324369                       # Number of turnarounds from WRITE to READ
system.mem_ctrls.numStayReadState            15579582                       # Number of times bus staying in READ state
system.mem_ctrls.numStayWriteState            4873210                       # Number of times bus staying in WRITE state
system.mem_ctrls.readReqs                     5263893                       # Number of read requests accepted
system.mem_ctrls.writeReqs                    5197515                       # Number of write requests accepted
system.mem_ctrls.readBursts                   5263893                       # Number of controller read bursts, including those serviced by the write queue
system.mem_ctrls.writeBursts                  5197515                       # Number of controller write bursts, including those merged in the write queue
system.mem_ctrls.servicedByWrQ                      0                       # Number of controller read bursts serviced by the write queue
system.mem_ctrls.mergedWrBursts                     0                       # Number of controller write bursts merged with an existing one
system.mem_ctrls.neitherReadNorWriteReqs            0                       # Number of requests that are neither read nor write
system.mem_ctrls.avgRdQLen                       1.00                       # Average read queue length when enqueuing
system.mem_ctrls.avgWrQLen                      25.29                       # Average write queue length when enqueuing
system.mem_ctrls.numRdRetry                         0                       # Number of times read queue was full causing retry
system.mem_ctrls.numWrRetry                         0                       # Number of times write queue was full causing retry
system.mem_ctrls.readPktSize::0                     0                       # Read request sizes (log2)
system.mem_ctrls.readPktSize::1                     0                       # Read request sizes (log2)
system.mem_ctrls.readPktSize::2                     0                       # Read request sizes (log2)
system.mem_ctrls.readPktSize::3                     0                       # Read request sizes (log2)
system.mem_ctrls.readPktSize::4                     0                       # Read request sizes (log2)
system.mem_ctrls.readPktSize::5                     0                       # Read request sizes (log2)
system.mem_ctrls.readPktSize::6               5263893                       # Read request sizes (log2)
system.mem_ctrls.writePktSize::0                    0                       # Write request sizes (log2)
system.mem_ctrls.writePktSize::1                    0                       # Write request sizes (log2)
system.mem_ctrls.writePktSize::2                    0                       # Write request sizes (log2)
system.mem_ctrls.writePktSize::3                    0                       # Write request sizes (log2)
system.mem_ctrls.writePktSize::4                    0                       # Write request sizes (log2)
system.mem_ctrls.writePktSize::5                    0                       # Write request sizes (log2)
system.mem_ctrls.writePktSize::6              5197515                       # Write request sizes (log2)
system.mem_ctrls.rdQLenPdf::0                 5263646                       # What read queue length does an incoming req see
system.mem_ctrls.rdQLenPdf::1                     227                       # What read queue length does an incoming req see
system.mem_ctrls.rdQLenPdf::2                      19                       # What read queue length does an incoming req see
system.mem_ctrls.rdQLenPdf::3                       1                       # What read queue length does an incoming req see
system.mem_ctrls.rdQLenPdf::4                       0                       # What read queue length does an incoming req see
system.mem_ctrls.rdQLenPdf::5                       0                       # What read queue length does an incoming req see
system.mem_ctrls.rdQLenPdf::6                       0                       # What read queue length does an incoming req see
system.mem_ctrls.rdQLenPdf::7                       0                       # What read queue length does an incoming req see
system.mem_ctrls.rdQLenPdf::8                       0                       # What read queue length does an incoming req see
system.mem_ctrls.rdQLenPdf::9                       0                       # What read queue length does an incoming req see
system.mem_ctrls.rdQLenPdf::10                      0                       # What read queue length does an incoming req see
system.mem_ctrls.rdQLenPdf::11                      0                       # What read queue length does an incoming req see
system.mem_ctrls.rdQLenPdf::12                      0                       # What read queue length does an incoming req see
system.mem_ctrls.rdQLenPdf::13                      0                       # What read queue length does an incoming req see
system.mem_ctrls.rdQLenPdf::14                      0                       # What read queue length does an incoming req see
[...]
system.mem_ctrls.dram.bw_write::.writebacks    471607636                       # Write bandwidth from this memory (bytes/s)
system.mem_ctrls.dram.bw_write::total       471607636                       # Write bandwidth from this memory (bytes/s)
system.mem_ctrls.dram.bw_total::.writebacks    471607636                       # Total bandwidth to/from this memory (bytes/s)
system.mem_ctrls.dram.bw_total::.cpu.inst        53626                       # Total bandwidth to/from this memory (bytes/s)
system.mem_ctrls.dram.bw_total::.cpu.data    477576960                       # Total bandwidth to/from this memory (bytes/s)
system.mem_ctrls.dram.bw_total::total       949238222                       # Total bandwidth to/from this memory (bytes/s)
system.mem_ctrls.dram.readBursts              5263893                       # Number of DRAM read bursts
system.mem_ctrls.dram.writeBursts             5197496                       # Number of DRAM write bursts
system.mem_ctrls.dram.perBankRdBursts::0       328923                       # Per bank write bursts
system.mem_ctrls.dram.perBankRdBursts::1       329089                       # Per bank write bursts
system.mem_ctrls.dram.perBankRdBursts::2       329059                       # Per bank write bursts
system.mem_ctrls.dram.perBankRdBursts::3       329078                       # Per bank write bursts
system.mem_ctrls.dram.perBankRdBursts::4       328991                       # Per bank write bursts
system.mem_ctrls.dram.perBankRdBursts::5       329077                       # Per bank write bursts
system.mem_ctrls.dram.perBankRdBursts::6       329081                       # Per bank write bursts
system.mem_ctrls.dram.perBankRdBursts::7       329025                       # Per bank write bursts
system.mem_ctrls.dram.perBankRdBursts::8       328903                       # Per bank write bursts
system.mem_ctrls.dram.perBankRdBursts::9       328864                       # Per bank write bursts
system.mem_ctrls.dram.perBankRdBursts::10       328902                       # Per bank write bursts
system.mem_ctrls.dram.perBankRdBursts::11       328924                       # Per bank write bursts
system.mem_ctrls.dram.perBankRdBursts::12       329019                       # Per bank write bursts
system.mem_ctrls.dram.perBankRdBursts::13       329022                       # Per bank write bursts
system.mem_ctrls.dram.perBankRdBursts::14       328993                       # Per bank write bursts
system.mem_ctrls.dram.perBankRdBursts::15       328943                       # Per bank write bursts
system.mem_ctrls.dram.perBankWrBursts::0       324741                       # Per bank write bursts
system.mem_ctrls.dram.perBankWrBursts::1       324893                       # Per bank write bursts
system.mem_ctrls.dram.perBankWrBursts::2       324889                       # Per bank write bursts
system.mem_ctrls.dram.perBankWrBursts::3       324958                       # Per bank write bursts
system.mem_ctrls.dram.perBankWrBursts::4       324878                       # Per bank write bursts
system.mem_ctrls.dram.perBankWrBursts::5       324937                       # Per bank write bursts
system.mem_ctrls.dram.perBankWrBursts::6       324938                       # Per bank write bursts
system.mem_ctrls.dram.perBankWrBursts::7       324910                       # Per bank write bursts
system.mem_ctrls.dram.perBankWrBursts::8       324737                       # Per bank write bursts
system.mem_ctrls.dram.perBankWrBursts::9       324736                       # Per bank write bursts
system.mem_ctrls.dram.perBankWrBursts::10       324736                       # Per bank write bursts
system.mem_ctrls.dram.perBankWrBursts::11       324791                       # Per bank write bursts
system.mem_ctrls.dram.perBankWrBursts::12       324865                       # Per bank write bursts
system.mem_ctrls.dram.perBankWrBursts::13       324857                       # Per bank write bursts
system.mem_ctrls.dram.perBankWrBursts::14       324813                       # Per bank write bursts
system.mem_ctrls.dram.perBankWrBursts::15       324817                       # Per bank write bursts
system.mem_ctrls.dram.totQLat             51830470500                       # Total ticks spent queuing
system.mem_ctrls.dram.totBusLat           26319465000                       # Total ticks spent in databus transfers
system.mem_ctrls.dram.totMemAccLat       150528464250                       # Total ticks spent from burst creation until serviced by the DRAM
system.mem_ctrls.dram.avgQLat                 9846.41                       # Average queueing delay per DRAM burst
system.mem_ctrls.dram.avgBusLat               5000.00                       # Average bus latency per DRAM burst
system.mem_ctrls.dram.avgMemAccLat           28596.41                       # Average memory access latency per DRAM burst
system.mem_ctrls.dram.readRowHits             4810602                       # Number of row buffer hits during reads
system.mem_ctrls.dram.writeRowHits            4833573                       # Number of row buffer hits during writes
system.mem_ctrls.dram.readRowHitRate            91.39                       # Row buffer hit rate for reads
system.mem_ctrls.dram.writeRowHitRate           93.00                       # Row buffer hit rate for writes
system.mem_ctrls.dram.bytesPerActivate::samples       817213                       # Bytes accessed per row activation
system.mem_ctrls.dram.bytesPerActivate::mean   819.283061                       # Bytes accessed per row activation
system.mem_ctrls.dram.bytesPerActivate::gmean   698.801201                       # Bytes accessed per row activation
system.mem_ctrls.dram.bytesPerActivate::stdev   314.420995                       # Bytes accessed per row activation
system.mem_ctrls.dram.bytesPerActivate::0-127        32942      4.03%      4.03% # Bytes accessed per row activation
system.mem_ctrls.dram.bytesPerActivate::128-255        37982      4.65%      8.68% # Bytes accessed per row activation
system.mem_ctrls.dram.bytesPerActivate::256-383        42228      5.17%     13.85% # Bytes accessed per row activation
system.mem_ctrls.dram.bytesPerActivate::384-511        46011      5.63%     19.48% # Bytes accessed per row activation
system.mem_ctrls.dram.bytesPerActivate::512-639        29453      3.60%     23.08% # Bytes accessed per row activation
system.mem_ctrls.dram.bytesPerActivate::640-767        41982      5.14%     28.22% # Bytes accessed per row activation
system.mem_ctrls.dram.bytesPerActivate::768-895        43803      5.36%     33.58% # Bytes accessed per row activation
system.mem_ctrls.dram.bytesPerActivate::896-1023        38634      4.73%     38.31% # Bytes accessed per row activation
system.mem_ctrls.dram.bytesPerActivate::1024-1151       504178     61.69%    100.00% # Bytes accessed per row activation
system.mem_ctrls.dram.bytesPerActivate::total       817213                       # Bytes accessed per row activation
system.mem_ctrls.dram.bytesRead             336889152                       # Total number of bytes read from DRAM
system.mem_ctrls.dram.bytesWritten          332639744                       # Total number of bytes written to DRAM
system.mem_ctrls.dram.avgRdBW              477.630586                       # Average DRAM read bandwidth in MiBytes/s
system.mem_ctrls.dram.avgWrBW              471.605912                       # Average DRAM write bandwidth in MiBytes/s
system.mem_ctrls.dram.peakBW                 12800.00                       # Theoretical peak bandwidth in MiByte/s
system.mem_ctrls.dram.busUtil                    7.42                       # Data bus utilization in percentage
system.mem_ctrls.dram.busUtilRead                3.73                       # Data bus utilization in percentage for reads
system.mem_ctrls.dram.busUtilWrite               3.68                       # Data bus utilization in percentage for writes
system.mem_ctrls.dram.pageHitRate               92.19                       # Row buffer hit rate, read and write combined
system.mem_ctrls.dram.power_state.pwrStateResidencyTicks::UNDEFINED 705334126000                       # Cumulative time (in ticks) in various power states
system.mem_ctrls.dram.rank0.actEnergy      2917375440                       # Energy for activate commands per rank (pJ)
system.mem_ctrls.dram.rank0.preEnergy      1550618025                       # Energy for precharge commands per rank (pJ)
system.mem_ctrls.dram.rank0.readEnergy    18794786220                       # Energy for read commands per rank (pJ)
system.mem_ctrls.dram.rank0.writeEnergy   13567531680                       # Energy for write commands per rank (pJ)
system.mem_ctrls.dram.rank0.refreshEnergy 55678393680.000008                       # Energy for refresh commands per rank (pJ)
system.mem_ctrls.dram.rank0.actBackEnergy 165898128360                       # Energy for active background per rank (pJ)
system.mem_ctrls.dram.rank0.preBackEnergy 131144617440                       # Energy for precharge background per rank (pJ)
system.mem_ctrls.dram.rank0.actPowerDownEnergy            0                       # Energy for active power-down per rank (pJ)
system.mem_ctrls.dram.rank0.prePowerDownEnergy            0                       # Energy for precharge power-down per rank (pJ)
system.mem_ctrls.dram.rank0.selfRefreshEnergy            0                       # Energy for self refresh per rank (pJ)
system.mem_ctrls.dram.rank0.totalEnergy  389551450845                       # Total energy per rank (pJ)
system.mem_ctrls.dram.rank0.averagePower   552.293497                       # Core power per rank (mW)
system.mem_ctrls.dram.rank0.totalIdleTime            0                       # Total Idle time Per DRAM Rank
system.mem_ctrls.dram.rank0.pwrStateTime::IDLE 336462744250                       # Time in different power states
system.mem_ctrls.dram.rank0.pwrStateTime::REF  23552620000                       # Time in different power states
system.mem_ctrls.dram.rank0.pwrStateTime::SREF            0                       # Time in different power states
system.mem_ctrls.dram.rank0.pwrStateTime::PRE_PDN            0                       # Time in different power states
system.mem_ctrls.dram.rank0.pwrStateTime::ACT 345318761750                       # Time in different power states
system.mem_ctrls.dram.rank0.pwrStateTime::ACT_PDN            0                       # Time in different power states
system.mem_ctrls.dram.rank1.actEnergy      2917532520                       # Energy for activate commands per rank (pJ)
system.mem_ctrls.dram.rank1.preEnergy      1550705310                       # Energy for precharge commands per rank (pJ)
system.mem_ctrls.dram.rank1.readEnergy    18789409800                       # Energy for read commands per rank (pJ)
system.mem_ctrls.dram.rank1.writeEnergy   13563397440                       # Energy for write commands per rank (pJ)
system.mem_ctrls.dram.rank1.refreshEnergy 55678393680.000008                       # Energy for refresh commands per rank (pJ)
system.mem_ctrls.dram.rank1.actBackEnergy 165892644960                       # Energy for active background per rank (pJ)
system.mem_ctrls.dram.rank1.preBackEnergy 131149235040                       # Energy for precharge background per rank (pJ)
system.mem_ctrls.dram.rank1.actPowerDownEnergy            0                       # Energy for active power-down per rank (pJ)
system.mem_ctrls.dram.rank1.prePowerDownEnergy            0                       # Energy for precharge power-down per rank (pJ)
system.mem_ctrls.dram.rank1.selfRefreshEnergy            0                       # Energy for self refresh per rank (pJ)
system.mem_ctrls.dram.rank1.totalEnergy  389541318750                       # Total energy per rank (pJ)
system.mem_ctrls.dram.rank1.averagePower   552.279132                       # Core power per rank (mW)
system.mem_ctrls.dram.rank1.totalIdleTime            0                       # Total Idle time Per DRAM Rank
system.mem_ctrls.dram.rank1.pwrStateTime::IDLE 336474521000                       # Time in different power states
system.mem_ctrls.dram.rank1.pwrStateTime::REF  23552620000                       # Time in different power states
system.mem_ctrls.dram.rank1.pwrStateTime::SREF            0                       # Time in different power states
system.mem_ctrls.dram.rank1.pwrStateTime::PRE_PDN            0                       # Time in different power states
system.mem_ctrls.dram.rank1.pwrStateTime::ACT 345306985000                       # Time in different power states
system.mem_ctrls.dram.rank1.pwrStateTime::ACT_PDN            0                       # Time in different power states
system.mem_ctrls.power_state.pwrStateResidencyTicks::UNDEFINED 705334126000                       # Cumulative time (in ticks) in various power states
system.membus.trans_dist::ReadResp                871                       # Transaction distribution
system.membus.trans_dist::WritebackDirty      5197515                       # Transaction distribution
system.membus.trans_dist::CleanEvict              461                       # Transaction distribution
system.membus.trans_dist::ReadExReq           5263022                       # Transaction distribution
system.membus.trans_dist::ReadExResp          5263022                       # Transaction distribution
system.membus.trans_dist::ReadSharedReq           871                       # Transaction distribution
system.membus.pkt_count_system.l2.mem_side_port::system.mem_ctrls.port     15725762                       # Packet count per connected requestor and responder (bytes)
system.membus.pkt_count::total               15725762                       # Packet count per connected requestor and responder (bytes)
system.membus.pkt_size_system.l2.mem_side_port::system.mem_ctrls.port    669530112                       # Cumulative packet size per connected requestor and responder (bytes)
system.membus.pkt_size::total               669530112                       # Cumulative packet size per connected requestor and responder (bytes)
system.membus.snoops                                0                       # Total snoops (count)
system.membus.snoopTraffic                          0                       # Total snoop traffic (bytes)
system.membus.snoop_fanout::samples           5263893                       # Request fanout histogram
system.membus.snoop_fanout::mean                    0                       # Request fanout histogram
system.membus.snoop_fanout::stdev                   0                       # Request fanout histogram
system.membus.snoop_fanout::underflows              0      0.00%      0.00% # Request fanout histogram
system.membus.snoop_fanout::0                 5263893    100.00%    100.00% # Request fanout histogram
system.membus.snoop_fanout::1                       0      0.00%    100.00% # Request fanout histogram
system.membus.snoop_fanout::overflows               0      0.00%    100.00% # Request fanout histogram
system.membus.snoop_fanout::min_value               0                       # Request fanout histogram
system.membus.snoop_fanout::max_value               0                       # Request fanout histogram
system.membus.snoop_fanout::total             5263893                       # Request fanout histogram
system.membus.power_state.pwrStateResidencyTicks::UNDEFINED 705334126000                       # Cumulative time (in ticks) in various power states
system.membus.reqLayer0.occupancy         31251929000                       # Layer occupancy (ticks)
system.membus.reqLayer0.utilization               4.4                       # Layer utilization (%)
system.membus.respLayer1.occupancy        27695848750                       # Layer occupancy (ticks)
system.membus.respLayer1.utilization              3.9                       # Layer utilization (%)
system.tol2bus.trans_dist::ReadResp              4367                       # Transaction distribution
system.tol2bus.trans_dist::WritebackDirty     10463783                       # Transaction distribution
system.tol2bus.trans_dist::WritebackClean          309                       # Transaction distribution
system.tol2bus.trans_dist::CleanEvict            4070                       # Transaction distribution
system.tol2bus.trans_dist::ReadExReq          5266235                       # Transaction distribution
system.tol2bus.trans_dist::ReadExResp         5266235                       # Transaction distribution
system.tol2bus.trans_dist::ReadCleanReq           679                       # Transaction distribution
system.tol2bus.trans_dist::ReadSharedReq         3688                       # Transaction distribution
system.tol2bus.pkt_count_system.cpu.icache.mem_side_port::system.l2.cpu_side_port         1667                       # Packet count per connected requestor and responder (bytes)
system.tol2bus.pkt_count_system.cpu.dcache.mem_side_port::system.l2.cpu_side_port     15809257                       # Packet count per connected requestor and responder (bytes)
system.tol2bus.pkt_count::total              15810924                       # Packet count per connected requestor and responder (bytes)
system.tol2bus.pkt_size_system.cpu.icache.mem_side_port::system.l2.cpu_side_port        63232                       # Cumulative packet size per connected requestor and responder (bytes)
system.tol2bus.pkt_size_system.cpu.dcache.mem_side_port::system.l2.cpu_side_port    674316224                       # Cumulative packet size per connected requestor and responder (bytes)
system.tol2bus.pkt_size::total              674379456                       # Cumulative packet size per connected requestor and responder (bytes)
system.tol2bus.snoops                         5198442                       # Total snoops (count)
system.tol2bus.snoopTraffic                 332640960                       # Total snoop traffic (bytes)
system.tol2bus.snoop_fanout::samples         10469044                       # Request fanout histogram
system.tol2bus.snoop_fanout::mean            0.000104                       # Request fanout histogram
system.tol2bus.snoop_fanout::stdev           0.010199                       # Request fanout histogram
system.tol2bus.snoop_fanout::underflows             0      0.00%      0.00% # Request fanout histogram
system.tol2bus.snoop_fanout::0               10467955     99.99%     99.99% # Request fanout histogram
system.tol2bus.snoop_fanout::1                   1089      0.01%    100.00% # Request fanout histogram
system.tol2bus.snoop_fanout::2                      0      0.00%    100.00% # Request fanout histogram
system.tol2bus.snoop_fanout::overflows              0      0.00%    100.00% # Request fanout histogram
system.tol2bus.snoop_fanout::min_value              0                       # Request fanout histogram
system.tol2bus.snoop_fanout::max_value              1                       # Request fanout histogram
system.tol2bus.snoop_fanout::total           10469044                       # Request fanout histogram
system.tol2bus.power_state.pwrStateResidencyTicks::UNDEFINED 705334126000                       # Cumulative time (in ticks) in various power states
system.tol2bus.reqLayer0.occupancy        21073476000                       # Layer occupancy (ticks)
system.tol2bus.reqLayer0.utilization              3.0                       # Layer utilization (%)
system.tol2bus.respLayer0.occupancy           2037000                       # Layer occupancy (ticks)
system.tol2bus.respLayer0.utilization             0.0                       # Layer utilization (%)
system.tol2bus.respLayer1.occupancy       15809775993                       # Layer occupancy (ticks)
system.tol2bus.respLayer1.utilization             2.2                       # Layer utilization (%)
system.voltage_domain.voltage                       1                       # Voltage in Volts

---------- End Simulation Statistics   ----------
