
---------- Begin Simulation Statistics ----------
final_tick                               167271640000                       # Number of ticks from beginning of simulation (restored from checkpoints and never reset)
host_inst_rate                                 140009                       # Simulator instruction rate (inst/s)
host_mem_usage                                 660988                       # Number of bytes of host memory used
host_op_rate                                   140014                       # Simulator op (including micro ops) rate (op/s)
host_seconds                                   714.24                       # Real time elapsed on the host
host_tick_rate                              234195747                       # Simulator tick rate (ticks/s)
sim_freq                                 1000000000000                       # Frequency of simulated ticks
sim_insts                                   100000000                       # Number of instructions simulated
sim_ops                                     100003676                       # Number of ops (including micro ops) simulated
sim_seconds                                  0.167272                       # Number of seconds simulated
sim_ticks                                167271640000                       # Number of ticks simulated
system.cpu.committedInsts                   100000000                       # Number of instructions committed
system.cpu.committedOps                     100003676                       # Number of ops (including micro ops) committed
system.cpu.cpi                               1.672716                       # CPI: cycles per instruction
system.cpu.discardedOps                         21247                       # Number of ops (including micro ops) which were discarded before commit
system.cpu.idleCycles                        53445329                       # Total number of cycles that the object has spent stopped
system.cpu.ipc                               0.597830                       # IPC: instructions per cycle
system.cpu.numCycles                        167271640                       # number of cpu cycles simulated
system.cpu.numFetchSuspends                         0                       # Number of times Execute suspended instruction fetching
system.cpu.numWorkItemsCompleted                    0                       # number of work items this cpu completed
system.cpu.numWorkItemsStarted                      0                       # number of work items this cpu started
system.cpu.op_class_0::No_OpClass                   0      0.00%      0.00% # Class of committed instruction
system.cpu.op_class_0::IntAlu                49995472     49.99%     49.99% # Class of committed instruction
system.cpu.op_class_0::IntMult                     88      0.00%     49.99% # Class of committed instruction
system.cpu.op_class_0::IntDiv                       0      0.00%     49.99% # Class of committed instruction
system.cpu.op_class_0::FloatAdd                     0      0.00%     49.99% # Class of committed instruction
system.cpu.op_class_0::FloatCmp                     0      0.00%     49.99% # Class of committed instruction
system.cpu.op_class_0::FloatCvt                     0      0.00%     49.99% # Class of committed instruction
system.cpu.op_class_0::FloatMult                    0      0.00%     49.99% # Class of committed instruction
system.cpu.op_class_0::FloatMultAcc                 0      0.00%     49.99% # Class of committed instruction
system.cpu.op_class_0::FloatDiv                     0      0.00%     49.99% # Class of committed instruction
system.cpu.op_class_0::FloatMisc                    0      0.00%     49.99% # Class of committed instruction
system.cpu.op_class_0::FloatSqrt                    0      0.00%     49.99% # Class of committed instruction
system.cpu.op_class_0::SimdAdd                      0      0.00%     49.99% # Class of committed instruction
system.cpu.op_class_0::SimdAddAcc                   0      0.00%     49.99% # Class of committed instruction
system.cpu.op_class_0::SimdAlu                      0      0.00%     49.99% # Class of committed instruction
system.cpu.op_class_0::SimdCmp                      0      0.00%     49.99% # Class of committed instruction
system.cpu.op_class_0::SimdCvt                      0      0.00%     49.99% # Class of committed instruction
system.cpu.op_class_0::SimdMisc                     0      0.00%     49.99% # Class of committed instruction
system.cpu.op_class_0::SimdMult                     0      0.00%     49.99% # Class of committed instruction
system.cpu.op_class_0::SimdMultAcc                  0      0.00%     49.99% # Class of committed instruction
system.cpu.op_class_0::SimdShift                    0      0.00%     49.99% # Class of committed instruction
system.cpu.op_class_0::SimdShiftAcc                 0      0.00%     49.99% # Class of committed instruction
system.cpu.op_class_0::SimdDiv                      0      0.00%     49.99% # Class of committed instruction
system.cpu.op_class_0::SimdSqrt                     0      0.00%     49.99% # Class of committed instruction
system.cpu.op_class_0::SimdFloatAdd                 0      0.00%     49.99% # Class of committed instruction
system.cpu.op_class_0::SimdFloatAlu                 0      0.00%     49.99% # Class of committed instruction
system.cpu.op_class_0::SimdFloatCmp                 2      0.00%     49.99% # Class of committed instruction
system.cpu.op_class_0::SimdFloatCvt                 0      0.00%     49.99% # Class of committed instruction
system.cpu.op_class_0::SimdFloatDiv                 0      0.00%     49.99% # Class of committed instruction
system.cpu.op_class_0::SimdFloatMisc               22      0.00%     49.99% # Class of committed instruction
system.cpu.op_class_0::SimdFloatMult                0      0.00%     49.99% # Class of committed instruction
system.cpu.op_class_0::SimdFloatMultAcc             0      0.00%     49.99% # Class of committed instruction
system.cpu.op_class_0::SimdFloatSqrt                0      0.00%     49.99% # Class of committed instruction
system.cpu.op_class_0::SimdReduceAdd                0      0.00%     49.99% # Class of committed instruction
system.cpu.op_class_0::SimdReduceAlu                0      0.00%     49.99% # Class of committed instruction
system.cpu.op_class_0::SimdReduceCmp                0      0.00%     49.99% # Class of committed instruction
system.cpu.op_class_0::SimdFloatReduceAdd            0      0.00%     49.99% # Class of committed instruction
system.cpu.op_class_0::SimdFloatReduceCmp            0      0.00%     49.99% # Class of committed instruction
system.cpu.op_class_0::SimdAes                      0      0.00%     49.99% # Class of committed instruction
system.cpu.op_class_0::SimdAesMix                   0      0.00%     49.99% # Class of committed instruction
system.cpu.op_class_0::SimdSha1Hash                 0      0.00%     49.99% # Class of committed instruction
system.cpu.op_class_0::SimdSha1Hash2                0      0.00%     49.99% # Class of committed instruction
system.cpu.op_class_0::SimdSha256Hash               0      0.00%     49.99% # Class of committed instruction
system.cpu.op_class_0::SimdSha256Hash2              0      0.00%     49.99% # Class of committed instruction
system.cpu.op_class_0::SimdShaSigma2                0      0.00%     49.99% # Class of committed instruction
system.cpu.op_class_0::SimdShaSigma3                0      0.00%     49.99% # Class of committed instruction
system.cpu.op_class_0::SimdPredAlu                  0      0.00%     49.99% # Class of committed instruction
system.cpu.op_class_0::MemRead               36892238     36.89%     86.88% # Class of committed instruction
system.cpu.op_class_0::MemWrite              13115854     13.12%    100.00% # Class of committed instruction
system.cpu.op_class_0::FloatMemRead                 0      0.00%    100.00% # Class of committed instruction
system.cpu.op_class_0::FloatMemWrite                0      0.00%    100.00% # Class of committed instruction
system.cpu.op_class_0::IprAccess                    0      0.00%    100.00% # Class of committed instruction
system.cpu.op_class_0::InstPrefetch                 0      0.00%    100.00% # Class of committed instruction
system.cpu.op_class_0::total                100003676                       # Class of committed instruction
system.cpu.tickCycles                       113826311                       # Number of cycles that the object actually ticked
system.cpu.workload.numSyscalls                    19                       # Number of system calls
system.membus.snoop_filter.hit_multi_requests            0                       # Number of requests hitting in the snoop filter with multiple (>1) holders of the requested data.
system.membus.snoop_filter.hit_multi_snoops            0                       # Number of snoops hitting in the snoop filter with multiple (>1) holders of the requested data.
system.membus.snoop_filter.hit_single_requests       355950                       # Number of requests hitting in the snoop filter with a single holder of the requested data.
system.membus.snoop_filter.hit_single_snoops            0                       # Number of snoops hitting in the snoop filter with a single holder of the requested data.
system.membus.snoop_filter.tot_requests        728120                       # Total number of requests made to the snoop filter.
system.membus.snoop_filter.tot_snoops               0                       # Total number of snoops made to the snoop filter.
system.tol2bus.snoop_filter.hit_multi_requests        11648                       # Number of requests hitting in the snoop filter with multiple (>1) holders of the requested data.
system.tol2bus.snoop_filter.hit_multi_snoops          374                       # Number of snoops hitting in the snoop filter with multiple (>1) holders of the requested data.
system.tol2bus.snoop_filter.hit_single_requests       416537                       # Number of requests hitting in the snoop filter with a single holder of the requested data.
system.tol2bus.snoop_filter.hit_single_snoops         1288                       # Number of snoops hitting in the snoop filter with a single holder of the requested data.
system.tol2bus.snoop_filter.tot_requests       833795                       # Total number of requests made to the snoop filter.
system.tol2bus.snoop_filter.tot_snoops           1662                       # Total number of snoops made to the snoop filter.
system.clk_domain.clock                          1000                       # Clock period in ticks
system.cpu.branchPred.lookups                  606740                       # Number of BP lookups
system.cpu.branchPred.condPredicted            604592                       # Number of conditional branches predicted
system.cpu.branchPred.condIncorrect               825                       # Number of conditional branches incorrect
system.cpu.branchPred.BTBLookups               602631                       # Number of BTB lookups
system.cpu.branchPred.BTBHits                  601446                       # Number of BTB hits
system.cpu.branchPred.BTBHitPct             99.803362                       # BTB Hit Percentage
system.cpu.branchPred.RASUsed                     572                       # Number of times the RAS was used to get a target.
system.cpu.branchPred.RASIncorrect                  2                       # Number of incorrect RAS predictions.
system.cpu.branchPred.indirectLookups             373                       # Number of indirect predictor lookups.
system.cpu.branchPred.indirectHits                174                       # Number of indirect target hits.
system.cpu.branchPred.indirectMisses              199                       # Number of indirect misses.
system.cpu.branchPred.indirectMispredicted          101                       # Number of mispredicted indirect branches.
system.cpu.dcache.demand_hits::.cpu.data     47985245                       # number of demand (read+write) hits
system.cpu.dcache.demand_hits::total         47985245                       # number of demand (read+write) hits
system.cpu.dcache.overall_hits::.cpu.data     47985290                       # number of overall hits
system.cpu.dcache.overall_hits::total        47985290                       # number of overall hits
system.cpu.dcache.demand_misses::.cpu.data       809883                       # number of demand (read+write) misses
system.cpu.dcache.demand_misses::total         809883                       # number of demand (read+write) misses
system.cpu.dcache.overall_misses::.cpu.data       809891                       # number of overall misses
system.cpu.dcache.overall_misses::total        809891                       # number of overall misses
system.cpu.dcache.demand_miss_latency::.cpu.data  94232612000                       # number of demand (read+write) miss cycles
system.cpu.dcache.demand_miss_latency::total  94232612000                       # number of demand (read+write) miss cycles
system.cpu.dcache.overall_miss_latency::.cpu.data  94232612000                       # number of overall miss cycles
system.cpu.dcache.overall_miss_latency::total  94232612000                       # number of overall miss cycles
system.cpu.dcache.demand_accesses::.cpu.data     48795128                       # number of demand (read+write) accesses
system.cpu.dcache.demand_accesses::total     48795128                       # number of demand (read+write) accesses
system.cpu.dcache.overall_accesses::.cpu.data     48795181                       # number of overall (read+write) accesses
system.cpu.dcache.overall_accesses::total     48795181                       # number of overall (read+write) accesses
system.cpu.dcache.demand_miss_rate::.cpu.data     0.016598                       # miss rate for demand accesses
system.cpu.dcache.demand_miss_rate::total     0.016598                       # miss rate for demand accesses
system.cpu.dcache.overall_miss_rate::.cpu.data     0.016598                       # miss rate for overall accesses
system.cpu.dcache.overall_miss_rate::total     0.016598                       # miss rate for overall accesses
system.cpu.dcache.demand_avg_miss_latency::.cpu.data 116353.364622                       # average overall miss latency
system.cpu.dcache.demand_avg_miss_latency::total 116353.364622                       # average overall miss latency
system.cpu.dcache.overall_avg_miss_latency::.cpu.data 116352.215298                       # average overall miss latency
system.cpu.dcache.overall_avg_miss_latency::total 116352.215298                       # average overall miss latency
system.cpu.dcache.blocked_cycles::no_mshrs            0                       # number of cycles access was blocked
system.cpu.dcache.blocked_cycles::no_targets            0                       # number of cycles access was blocked
system.cpu.dcache.blocked::no_mshrs                 0                       # number of cycles access was blocked
system.cpu.dcache.blocked::no_targets               0                       # number of cycles access was blocked
system.cpu.dcache.avg_blocked_cycles::no_mshrs          nan                       # average number of cycles each access was blocked
system.cpu.dcache.avg_blocked_cycles::no_targets          nan                       # average number of cycles each access was blocked
system.cpu.dcache.writebacks::.writebacks       404781                       # number of writebacks
system.cpu.dcache.writebacks::total            404781                       # number of writebacks
system.cpu.dcache.demand_mshr_hits::.cpu.data       392915                       # number of demand (read+write) MSHR hits
system.cpu.dcache.demand_mshr_hits::total       392915                       # number of demand (read+write) MSHR hits
system.cpu.dcache.overall_mshr_hits::.cpu.data       392915                       # number of overall MSHR hits
system.cpu.dcache.overall_mshr_hits::total       392915                       # number of overall MSHR hits
system.cpu.dcache.demand_mshr_misses::.cpu.data       416968                       # number of demand (read+write) MSHR misses
system.cpu.dcache.demand_mshr_misses::total       416968                       # number of demand (read+write) MSHR misses
system.cpu.dcache.overall_mshr_misses::.cpu.data       416971                       # number of overall MSHR misses
system.cpu.dcache.overall_mshr_misses::total       416971                       # number of overall MSHR misses
system.cpu.dcache.demand_mshr_miss_latency::.cpu.data  47773691000                       # number of demand (read+write) MSHR miss cycles
system.cpu.dcache.demand_mshr_miss_latency::total  47773691000                       # number of demand (read+write) MSHR miss cycles
system.cpu.dcache.overall_mshr_miss_latency::.cpu.data  47774015000                       # number of overall MSHR miss cycles
system.cpu.dcache.overall_mshr_miss_latency::total  47774015000                       # number of overall MSHR miss cycles
system.cpu.dcache.demand_mshr_miss_rate::.cpu.data     0.008545                       # mshr miss rate for demand accesses
system.cpu.dcache.demand_mshr_miss_rate::total     0.008545                       # mshr miss rate for demand accesses
system.cpu.dcache.overall_mshr_miss_rate::.cpu.data     0.008545                       # mshr miss rate for overall accesses
system.cpu.dcache.overall_mshr_miss_rate::total     0.008545                       # mshr miss rate for overall accesses
system.cpu.dcache.demand_avg_mshr_miss_latency::.cpu.data 114573.998484                       # average overall mshr miss latency
system.cpu.dcache.demand_avg_mshr_miss_latency::total 114573.998484                       # average overall mshr miss latency
system.cpu.dcache.overall_avg_mshr_miss_latency::.cpu.data 114573.951186                       # average overall mshr miss latency
system.cpu.dcache.overall_avg_mshr_miss_latency::total 114573.951186                       # average overall mshr miss latency
system.cpu.dcache.replacements                 416459                       # number of replacements
system.cpu.dcache.ReadReq_hits::.cpu.data     35679322                       # number of ReadReq hits
system.cpu.dcache.ReadReq_hits::total        35679322                       # number of ReadReq hits
system.cpu.dcache.ReadReq_misses::.cpu.data        23311                       # number of ReadReq misses
system.cpu.dcache.ReadReq_misses::total         23311                       # number of ReadReq misses
system.cpu.dcache.ReadReq_miss_latency::.cpu.data   1102731000                       # number of ReadReq miss cycles
system.cpu.dcache.ReadReq_miss_latency::total   1102731000                       # number of ReadReq miss cycles
system.cpu.dcache.ReadReq_accesses::.cpu.data     35702633                       # number of ReadReq accesses(hits+misses)
system.cpu.dcache.ReadReq_accesses::total     35702633                       # number of ReadReq accesses(hits+misses)
system.cpu.dcache.ReadReq_miss_rate::.cpu.data     0.000653                       # miss rate for ReadReq accesses
system.cpu.dcache.ReadReq_miss_rate::total     0.000653                       # miss rate for ReadReq accesses
system.cpu.dcache.ReadReq_avg_miss_latency::.cpu.data 47305.177813                       # average ReadReq miss latency
system.cpu.dcache.ReadReq_avg_miss_latency::total 47305.177813                       # average ReadReq miss latency
system.cpu.dcache.ReadReq_mshr_hits::.cpu.data            8                       # number of ReadReq MSHR hits
system.cpu.dcache.ReadReq_mshr_hits::total            8                       # number of ReadReq MSHR hits
system.cpu.dcache.ReadReq_mshr_misses::.cpu.data        23303                       # number of ReadReq MSHR misses
system.cpu.dcache.ReadReq_mshr_misses::total        23303                       # number of ReadReq MSHR misses
system.cpu.dcache.ReadReq_mshr_miss_latency::.cpu.data   1055031000                       # number of ReadReq MSHR miss cycles
system.cpu.dcache.ReadReq_mshr_miss_latency::total   1055031000                       # number of ReadReq MSHR miss cycles
system.cpu.dcache.ReadReq_mshr_miss_rate::.cpu.data     0.000653                       # mshr miss rate for ReadReq accesses
system.cpu.dcache.ReadReq_mshr_miss_rate::total     0.000653                       # mshr miss rate for ReadReq accesses
system.cpu.dcache.ReadReq_avg_mshr_miss_latency::.cpu.data 45274.471098                       # average ReadReq mshr miss latency
system.cpu.dcache.ReadReq_avg_mshr_miss_latency::total 45274.471098                       # average ReadReq mshr miss latency
system.cpu.dcache.WriteReq_hits::.cpu.data     12305923                       # number of WriteReq hits
system.cpu.dcache.WriteReq_hits::total       12305923                       # number of WriteReq hits
system.cpu.dcache.WriteReq_misses::.cpu.data       786572                       # number of WriteReq misses
system.cpu.dcache.WriteReq_misses::total       786572                       # number of WriteReq misses
system.cpu.dcache.WriteReq_miss_latency::.cpu.data  93129881000                       # number of WriteReq miss cycles
system.cpu.dcache.WriteReq_miss_latency::total  93129881000                       # number of WriteReq miss cycles
system.cpu.dcache.WriteReq_accesses::.cpu.data     13092495                       # number of WriteReq accesses(hits+misses)
system.cpu.dcache.WriteReq_accesses::total     13092495                       # number of WriteReq accesses(hits+misses)
system.cpu.dcache.WriteReq_miss_rate::.cpu.data     0.060078                       # miss rate for WriteReq accesses
system.cpu.dcache.WriteReq_miss_rate::total     0.060078                       # miss rate for WriteReq accesses
system.cpu.dcache.WriteReq_avg_miss_latency::.cpu.data 118399.690047                       # average WriteReq miss latency
system.cpu.dcache.WriteReq_avg_miss_latency::total 118399.690047                       # average WriteReq miss latency
system.cpu.dcache.WriteReq_mshr_hits::.cpu.data       392907                       # number of WriteReq MSHR hits
system.cpu.dcache.WriteReq_mshr_hits::total       392907                       # number of WriteReq MSHR hits
system.cpu.dcache.WriteReq_mshr_misses::.cpu.data       393665                       # number of WriteReq MSHR misses
system.cpu.dcache.WriteReq_mshr_misses::total       393665                       # number of WriteReq MSHR misses
system.cpu.dcache.WriteReq_mshr_miss_latency::.cpu.data  46718660000                       # number of WriteReq MSHR miss cycles
system.cpu.dcache.WriteReq_mshr_miss_latency::total  46718660000                       # number of WriteReq MSHR miss cycles
system.cpu.dcache.WriteReq_mshr_miss_rate::.cpu.data     0.030068                       # mshr miss rate for WriteReq accesses
system.cpu.dcache.WriteReq_mshr_miss_rate::total     0.030068                       # mshr miss rate for WriteReq accesses
system.cpu.dcache.WriteReq_avg_mshr_miss_latency::.cpu.data 118676.184065                       # average WriteReq mshr miss latency
system.cpu.dcache.WriteReq_avg_mshr_miss_latency::total 118676.184065                       # average WriteReq mshr miss latency
system.cpu.dcache.SoftPFReq_hits::.cpu.data           45                       # number of SoftPFReq hits
system.cpu.dcache.SoftPFReq_hits::total            45                       # number of SoftPFReq hits
system.cpu.dcache.SoftPFReq_misses::.cpu.data            8                       # number of SoftPFReq misses
system.cpu.dcache.SoftPFReq_misses::total            8                       # number of SoftPFReq misses
system.cpu.dcache.SoftPFReq_accesses::.cpu.data           53                       # number of SoftPFReq accesses(hits+misses)
system.cpu.dcache.SoftPFReq_accesses::total           53                       # number of SoftPFReq accesses(hits+misses)
system.cpu.dcache.SoftPFReq_miss_rate::.cpu.data     0.150943                       # miss rate for SoftPFReq accesses
system.cpu.dcache.SoftPFReq_miss_rate::total     0.150943                       # miss rate for SoftPFReq accesses
system.cpu.dcache.SoftPFReq_mshr_misses::.cpu.data            3                       # number of SoftPFReq MSHR misses
system.cpu.dcache.SoftPFReq_mshr_misses::total            3                       # number of SoftPFReq MSHR misses
system.cpu.dcache.SoftPFReq_mshr_miss_latency::.cpu.data       324000                       # number of SoftPFReq MSHR miss cycles
system.cpu.dcache.SoftPFReq_mshr_miss_latency::total       324000                       # number of SoftPFReq MSHR miss cycles
system.cpu.dcache.SoftPFReq_mshr_miss_rate::.cpu.data     0.056604                       # mshr miss rate for SoftPFReq accesses
system.cpu.dcache.SoftPFReq_mshr_miss_rate::total     0.056604                       # mshr miss rate for SoftPFReq accesses
system.cpu.dcache.SoftPFReq_avg_mshr_miss_latency::.cpu.data       108000                       # average SoftPFReq mshr miss latency
system.cpu.dcache.SoftPFReq_avg_mshr_miss_latency::total       108000                       # average SoftPFReq mshr miss latency
system.cpu.dcache.LoadLockedReq_hits::.cpu.data           14                       # number of LoadLockedReq hits
system.cpu.dcache.LoadLockedReq_hits::total           14                       # number of LoadLockedReq hits
system.cpu.dcache.LoadLockedReq_accesses::.cpu.data           14                       # number of LoadLockedReq accesses(hits+misses)
system.cpu.dcache.LoadLockedReq_accesses::total           14                       # number of LoadLockedReq accesses(hits+misses)
system.cpu.dcache.StoreCondReq_hits::.cpu.data           14                       # number of StoreCondReq hits
system.cpu.dcache.StoreCondReq_hits::total           14                       # number of StoreCondReq hits
system.cpu.dcache.StoreCondReq_accesses::.cpu.data           14                       # number of StoreCondReq accesses(hits+misses)
system.cpu.dcache.StoreCondReq_accesses::total           14                       # number of StoreCondReq accesses(hits+misses)
system.cpu.dcache.power_state.pwrStateResidencyTicks::UNDEFINED 167271640000                       # Cumulative time (in ticks) in various power states
system.cpu.dcache.tags.tagsinuse           511.567710                       # Cycle average of tags in use
system.cpu.dcache.tags.total_refs            48402289                       # Total number of references to valid blocks.
system.cpu.dcache.tags.sampled_refs            416971                       # Sample count of references to valid blocks.
system.cpu.dcache.tags.avg_refs            116.080708                       # Average number of references to valid blocks.
system.cpu.dcache.tags.warmup_cycle            255000                       # Cycle when the warmup percentage was hit.
system.cpu.dcache.tags.occ_blocks::.cpu.data   511.567710                       # Average occupied blocks per requestor
system.cpu.dcache.tags.occ_percent::.cpu.data     0.999156                       # Average percentage of cache occupancy
system.cpu.dcache.tags.occ_percent::total     0.999156                       # Average percentage of cache occupancy
system.cpu.dcache.tags.occ_task_id_blocks::1024          512                       # Occupied blocks per task id
system.cpu.dcache.tags.age_task_id_blocks_1024::0           23                       # Occupied blocks per task id
system.cpu.dcache.tags.age_task_id_blocks_1024::1          202                       # Occupied blocks per task id
system.cpu.dcache.tags.age_task_id_blocks_1024::2          287                       # Occupied blocks per task id
system.cpu.dcache.tags.occ_task_id_percent::1024            1                       # Percentage of cache occupancy per task id
system.cpu.dcache.tags.tag_accesses          49212180                       # Number of tag accesses
system.cpu.dcache.tags.data_accesses         49212180                       # Number of data accesses
system.cpu.dcache.tags.power_state.pwrStateResidencyTicks::UNDEFINED 167271640000                       # Cumulative time (in ticks) in various power states
system.cpu.dtb.instHits                             0                       # ITB inst hits
system.cpu.dtb.instMisses                           0                       # ITB inst misses
system.cpu.dtb.readHits                             0                       # DTB read hits
system.cpu.dtb.readMisses                           0                       # DTB read misses
system.cpu.dtb.writeHits                            0                       # DTB write hits
system.cpu.dtb.writeMisses                          0                       # DTB write misses
system.cpu.dtb.inserts                              0                       # Number of times an entry is inserted into the TLB
system.cpu.dtb.flushTlb                             0                       # Number of times complete TLB was flushed
system.cpu.dtb.flushTlbMva                          0                       # Number of times TLB was flushed by MVA
system.cpu.dtb.flushTlbMvaAsid                      0                       # Number of times TLB was flushed by MVA & ASID
system.cpu.dtb.flushTlbAsid                         0                       # Number of times TLB was flushed by ASID
system.cpu.dtb.flushedEntries                       0                       # Number of entries that have been flushed from TLB
system.cpu.dtb.alignFaults                          0                       # Number of TLB faults due to alignment restrictions
system.cpu.dtb.prefetchFaults                       0                       # Number of TLB faults due to prefetch
system.cpu.dtb.domainFaults                         0                       # Number of TLB faults due to domain restrictions
system.cpu.dtb.permsFaults                          0                       # Number of TLB faults due to permissions restrictions
system.cpu.dtb.readAccesses                         0                       # DTB read accesses
system.cpu.dtb.writeAccesses                        0                       # DTB write accesses
system.cpu.dtb.instAccesses                         0                       # ITB inst accesses
system.cpu.dtb.hits                                 0                       # Total TLB (inst and data) hits
system.cpu.dtb.misses                               0                       # Total TLB (inst and data) misses
system.cpu.dtb.accesses                             0                       # Total TLB (inst and data) accesses
system.cpu.dtb.stage2_mmu.stage2_tlb.instHits            0                       # ITB inst hits
system.cpu.dtb.stage2_mmu.stage2_tlb.instMisses            0                       # ITB inst misses
system.cpu.dtb.stage2_mmu.stage2_tlb.readHits            0                       # DTB read hits
system.cpu.dtb.stage2_mmu.stage2_tlb.readMisses            0                       # DTB read misses
system.cpu.dtb.stage2_mmu.stage2_tlb.writeHits            0                       # DTB write hits
system.cpu.dtb.stage2_mmu.stage2_tlb.writeMisses            0                       # DTB write misses
system.cpu.dtb.stage2_mmu.stage2_tlb.inserts            0                       # Number of times an entry is inserted into the TLB
system.cpu.dtb.stage2_mmu.stage2_tlb.flushTlb            0                       # Number of times complete TLB was flushed
system.cpu.dtb.stage2_mmu.stage2_tlb.flushTlbMva            0                       # Number of times TLB was flushed by MVA
system.cpu.dtb.stage2_mmu.stage2_tlb.flushTlbMvaAsid            0                       # Number of times TLB was flushed by MVA & ASID
system.cpu.dtb.stage2_mmu.stage2_tlb.flushTlbAsid            0                       # Number of times TLB was flushed by ASID
system.cpu.dtb.stage2_mmu.stage2_tlb.flushedEntries            0                       # Number of entries that have been flushed from TLB
system.cpu.dtb.stage2_mmu.stage2_tlb.alignFaults            0                       # Number of TLB faults due to alignment restrictions
system.cpu.dtb.stage2_mmu.stage2_tlb.prefetchFaults            0                       # Number of TLB faults due to prefetch
system.cpu.dtb.stage2_mmu.stage2_tlb.domainFaults            0                       # Number of TLB faults due to domain restrictions
system.cpu.dtb.stage2_mmu.stage2_tlb.permsFaults            0                       # Number of TLB faults due to permissions restrictions
system.cpu.dtb.stage2_mmu.stage2_tlb.readAccesses            0                       # DTB read accesses
system.cpu.dtb.stage2_mmu.stage2_tlb.writeAccesses            0                       # DTB write accesses
system.cpu.dtb.stage2_mmu.stage2_tlb.instAccesses            0                       # ITB inst accesses
system.cpu.dtb.stage2_mmu.stage2_tlb.hits            0                       # Total TLB (inst and data) hits
system.cpu.dtb.stage2_mmu.stage2_tlb.misses            0                       # Total TLB (inst and data) misses
system.cpu.dtb.stage2_mmu.stage2_tlb.accesses            0                       # Total TLB (inst and data) accesses
system.cpu.dtb.stage2_mmu.stage2_tlb.walker.walks            0                       # Table walker walks requested
system.cpu.dtb.stage2_mmu.stage2_tlb.walker.requestOrigin_Requested::Data            0                       # Table walker requests started/completed, data/inst
system.cpu.dtb.stage2_mmu.stage2_tlb.walker.requestOrigin_Requested::Inst            0                       # Table walker requests started/completed, data/inst
system.cpu.dtb.stage2_mmu.stage2_tlb.walker.requestOrigin_Requested::total            0                       # Table walker requests started/completed, data/inst
system.cpu.dtb.stage2_mmu.stage2_tlb.walker.requestOrigin_Completed::Data            0                       # Table walker requests started/completed, data/inst
system.cpu.dtb.stage2_mmu.stage2_tlb.walker.requestOrigin_Completed::Inst            0                       # Table walker requests started/completed, data/inst
system.cpu.dtb.stage2_mmu.stage2_tlb.walker.requestOrigin_Completed::total            0                       # Table walker requests started/completed, data/inst
system.cpu.dtb.stage2_mmu.stage2_tlb.walker.requestOrigin::total            0                       # Table walker requests started/completed, data/inst
system.cpu.dtb.stage2_mmu.stage2_tlb.walker.power_state.pwrStateResidencyTicks::UNDEFINED 167271640000                       # Cumulative time (in ticks) in various power states
system.cpu.dtb.walker.walks                         0                       # Table walker walks requested
system.cpu.dtb.walker.requestOrigin_Requested::Data            0                       # Table walker requests started/completed, data/inst
system.cpu.dtb.walker.requestOrigin_Requested::Inst            0                       # Table walker requests started/completed, data/inst
system.cpu.dtb.walker.requestOrigin_Requested::total            0                       # Table walker requests started/completed, data/inst
system.cpu.dtb.walker.requestOrigin_Completed::Data            0                       # Table walker requests started/completed, data/inst
system.cpu.dtb.walker.requestOrigin_Completed::Inst            0                       # Table walker requests started/completed, data/inst
system.cpu.dtb.walker.requestOrigin_Completed::total            0                       # Table walker requests started/completed, data/inst
system.cpu.dtb.walker.requestOrigin::total            0                       # Table walker requests started/completed, data/inst
system.cpu.dtb.walker.power_state.pwrStateResidencyTicks::UNDEFINED 167271640000                       # Cumulative time (in ticks) in various power states
system.cpu.fetch2.intInstructions            49674973                       # Number of integer instructions successfully decoded
system.cpu.fetch2.fpInstructions                    0                       # Number of floating point instructions successfully decoded
system.cpu.fetch2.vecInstructions                   0                       # Number of SIMD instructions successfully decoded
system.cpu.fetch2.loadInstructions           37097046                       # Number of memory load instructions successfully decoded
system.cpu.fetch2.storeInstructions          13161179                       # Number of memory store instructions successfully decoded
system.cpu.fetch2.amoInstructions                   0                       # Number of memory atomic instructions successfully decoded
system.cpu.icache.demand_hits::.cpu.inst      3051975                       # number of demand (read+write) hits
system.cpu.icache.demand_hits::total          3051975                       # number of demand (read+write) hits
system.cpu.icache.overall_hits::.cpu.inst      3051975                       # number of overall hits
system.cpu.icache.overall_hits::total         3051975                       # number of overall hits
system.cpu.icache.demand_misses::.cpu.inst          288                       # number of demand (read+write) misses
system.cpu.icache.demand_misses::total            288                       # number of demand (read+write) misses
system.cpu.icache.overall_misses::.cpu.inst          288                       # number of overall misses
system.cpu.icache.overall_misses::total           288                       # number of overall misses
system.cpu.icache.demand_miss_latency::.cpu.inst     30178000                       # number of demand (read+write) miss cycles
system.cpu.icache.demand_miss_latency::total     30178000                       # number of demand (read+write) miss cycles
system.cpu.icache.overall_miss_latency::.cpu.inst     30178000                       # number of overall miss cycles
system.cpu.icache.overall_miss_latency::total     30178000                       # number of overall miss cycles
system.cpu.icache.demand_accesses::.cpu.inst      3052263                       # number of demand (read+write) accesses
system.cpu.icache.demand_accesses::total      3052263                       # number of demand (read+write) accesses
system.cpu.icache.overall_accesses::.cpu.inst      3052263                       # number of overall (read+write) accesses
system.cpu.icache.overall_accesses::total      3052263                       # number of overall (read+write) accesses
system.cpu.icache.demand_miss_rate::.cpu.inst     0.000094                       # miss rate for demand accesses
system.cpu.icache.demand_miss_rate::total     0.000094                       # miss rate for demand accesses
system.cpu.icache.overall_miss_rate::.cpu.inst     0.000094                       # miss rate for overall accesses
system.cpu.icache.overall_miss_rate::total     0.000094                       # miss rate for overall accesses
system.cpu.icache.demand_avg_miss_latency::.cpu.inst 104784.722222                       # average overall miss latency
system.cpu.icache.demand_avg_miss_latency::total 104784.722222                       # average overall miss latency
system.cpu.icache.overall_avg_miss_latency::.cpu.inst 104784.722222                       # average overall miss latency
system.cpu.icache.overall_avg_miss_latency::total 104784.722222                       # average overall miss latency
system.cpu.icache.blocked_cycles::no_mshrs            0                       # number of cycles access was blocked
system.cpu.icache.blocked_cycles::no_targets            0                       # number of cycles access was blocked
system.cpu.icache.blocked::no_mshrs                 0                       # number of cycles access was blocked
system.cpu.icache.blocked::no_targets               0                       # number of cycles access was blocked
system.cpu.icache.avg_blocked_cycles::no_mshrs          nan                       # average number of cycles each access was blocked
system.cpu.icache.avg_blocked_cycles::no_targets          nan                       # average number of cycles each access was blocked
system.cpu.icache.writebacks::.writebacks           77                       # number of writebacks
system.cpu.icache.writebacks::total                77                       # number of writebacks
system.cpu.icache.demand_mshr_misses::.cpu.inst          288                       # number of demand (read+write) MSHR misses
system.cpu.icache.demand_mshr_misses::total          288                       # number of demand (read+write) MSHR misses
system.cpu.icache.overall_mshr_misses::.cpu.inst          288                       # number of overall MSHR misses
system.cpu.icache.overall_mshr_misses::total          288                       # number of overall MSHR misses
system.cpu.icache.demand_mshr_miss_latency::.cpu.inst     29602000                       # number of demand (read+write) MSHR miss cycles
system.cpu.icache.demand_mshr_miss_latency::total     29602000                       # number of demand (read+write) MSHR miss cycles
system.cpu.icache.overall_mshr_miss_latency::.cpu.inst     29602000                       # number of overall MSHR miss cycles
system.cpu.icache.overall_mshr_miss_latency::total     29602000                       # number of overall MSHR miss cycles
system.cpu.icache.demand_mshr_miss_rate::.cpu.inst     0.000094                       # mshr miss rate for demand accesses
system.cpu.icache.demand_mshr_miss_rate::total     0.000094                       # mshr miss rate for demand accesses
system.cpu.icache.overall_mshr_miss_rate::.cpu.inst     0.000094                       # mshr miss rate for overall accesses
system.cpu.icache.overall_mshr_miss_rate::total     0.000094                       # mshr miss rate for overall accesses
system.cpu.icache.demand_avg_mshr_miss_latency::.cpu.inst 102784.722222                       # average overall mshr miss latency
system.cpu.icache.demand_avg_mshr_miss_latency::total 102784.722222                       # average overall mshr miss latency
system.cpu.icache.overall_avg_mshr_miss_latency::.cpu.inst 102784.722222                       # average overall mshr miss latency
system.cpu.icache.overall_avg_mshr_miss_latency::total 102784.722222                       # average overall mshr miss latency
system.cpu.icache.replacements                     77                       # number of replacements
system.cpu.icache.ReadReq_hits::.cpu.inst      3051975                       # number of ReadReq hits
system.cpu.icache.ReadReq_hits::total         3051975                       # number of ReadReq hits
system.cpu.icache.ReadReq_misses::.cpu.inst          288                       # number of ReadReq misses
system.cpu.icache.ReadReq_misses::total           288                       # number of ReadReq misses
system.cpu.icache.ReadReq_miss_latency::.cpu.inst     30178000                       # number of ReadReq miss cycles
system.cpu.icache.ReadReq_miss_latency::total     30178000                       # number of ReadReq miss cycles
system.cpu.icache.ReadReq_accesses::.cpu.inst      3052263                       # number of ReadReq accesses(hits+misses)
system.cpu.icache.ReadReq_accesses::total      3052263                       # number of ReadReq accesses(hits+misses)
system.cpu.icache.ReadReq_miss_rate::.cpu.inst     0.000094                       # miss rate for ReadReq accesses
system.cpu.icache.ReadReq_miss_rate::total     0.000094                       # miss rate for ReadReq accesses
system.cpu.icache.ReadReq_avg_miss_latency::.cpu.inst 104784.722222                       # average ReadReq miss latency
system.cpu.icache.ReadReq_avg_miss_latency::total 104784.722222                       # average ReadReq miss latency
system.cpu.icache.ReadReq_mshr_misses::.cpu.inst          288                       # number of ReadReq MSHR misses
system.cpu.icache.ReadReq_mshr_misses::total          288                       # number of ReadReq MSHR misses
system.cpu.icache.ReadReq_mshr_miss_latency::.cpu.inst     29602000                       # number of ReadReq MSHR miss cycles
system.cpu.icache.ReadReq_mshr_miss_latency::total     29602000                       # number of ReadReq MSHR miss cycles
system.cpu.icache.ReadReq_mshr_miss_rate::.cpu.inst     0.000094                       # mshr miss rate for ReadReq accesses
system.cpu.icache.ReadReq_mshr_miss_rate::total     0.000094                       # mshr miss rate for ReadReq accesses
system.cpu.icache.ReadReq_avg_mshr_miss_latency::.cpu.inst 102784.722222                       # average ReadReq mshr miss latency
system.cpu.icache.ReadReq_avg_mshr_miss_latency::total 102784.722222                       # average ReadReq mshr miss latency
system.cpu.icache.power_state.pwrStateResidencyTicks::UNDEFINED 167271640000                       # Cumulative time (in ticks) in various power states
system.cpu.icache.tags.tagsinuse           210.968292                       # Cycle average of tags in use
system.cpu.icache.tags.total_refs             3052263                       # Total number of references to valid blocks.
system.cpu.icache.tags.sampled_refs               288                       # Sample count of references to valid blocks.
system.cpu.icache.tags.avg_refs          10598.135417                       # Average number of references to valid blocks.
system.cpu.icache.tags.warmup_cycle            123000                       # Cycle when the warmup percentage was hit.
system.cpu.icache.tags.occ_blocks::.cpu.inst   210.968292                       # Average occupied blocks per requestor
system.cpu.icache.tags.occ_percent::.cpu.inst     0.412047                       # Average percentage of cache occupancy
system.cpu.icache.tags.occ_percent::total     0.412047                       # Average percentage of cache occupancy
system.cpu.icache.tags.occ_task_id_blocks::1024          211                       # Occupied blocks per task id
system.cpu.icache.tags.age_task_id_blocks_1024::4          211                       # Occupied blocks per task id
system.cpu.icache.tags.occ_task_id_percent::1024     0.412109                       # Percentage of cache occupancy per task id
system.cpu.icache.tags.tag_accesses           3052551                       # Number of tag accesses
system.cpu.icache.tags.data_accesses          3052551                       # Number of data accesses
system.cpu.icache.tags.power_state.pwrStateResidencyTicks::UNDEFINED 167271640000                       # Cumulative time (in ticks) in various power states
system.cpu.itb.instHits                             0                       # ITB inst hits
system.cpu.itb.instMisses                           0                       # ITB inst misses
system.cpu.itb.readHits                             0                       # DTB read hits
system.cpu.itb.readMisses                           0                       # DTB read misses
system.cpu.itb.writeHits                            0                       # DTB write hits
system.cpu.itb.writeMisses                          0                       # DTB write misses
system.cpu.itb.inserts                              0                       # Number of times an entry is inserted into the TLB
system.cpu.itb.flushTlb                             0                       # Number of times complete TLB was flushed
system.cpu.itb.flushTlbMva                          0                       # Number of times TLB was flushed by MVA
system.cpu.itb.flushTlbMvaAsid                      0                       # Number of times TLB was flushed by MVA & ASID
system.cpu.itb.flushTlbAsid                         0                       # Number of times TLB was flushed by ASID
system.cpu.itb.flushedEntries                       0                       # Number of entries that have been flushed from TLB
system.cpu.itb.alignFaults                          0                       # Number of TLB faults due to alignment restrictions
system.cpu.itb.prefetchFaults                       0                       # Number of TLB faults due to prefetch
system.cpu.itb.domainFaults                         0                       # Number of TLB faults due to domain restrictions
system.cpu.itb.permsFaults                          0                       # Number of TLB faults due to permissions restrictions
system.cpu.itb.readAccesses                         0                       # DTB read accesses
system.cpu.itb.writeAccesses                        0                       # DTB write accesses
system.cpu.itb.instAccesses                         0                       # ITB inst accesses
system.cpu.itb.hits                                 0                       # Total TLB (inst and data) hits
system.cpu.itb.misses                               0                       # Total TLB (inst and data) misses
system.cpu.itb.accesses                             0                       # Total TLB (inst and data) accesses
system.cpu.itb.stage2_mmu.stage2_tlb.instHits            0                       # ITB inst hits
system.cpu.itb.stage2_mmu.stage2_tlb.instMisses            0                       # ITB inst misses
system.cpu.itb.stage2_mmu.stage2_tlb.readHits            0                       # DTB read hits
system.cpu.itb.stage2_mmu.stage2_tlb.readMisses            0                       # DTB read misses
system.cpu.itb.stage2_mmu.stage2_tlb.writeHits            0                       # DTB write hits
system.cpu.itb.stage2_mmu.stage2_tlb.writeMisses            0                       # DTB write misses
system.cpu.itb.stage2_mmu.stage2_tlb.inserts            0                       # Number of times an entry is inserted into the TLB
system.cpu.itb.stage2_mmu.stage2_tlb.flushTlb            0                       # Number of times complete TLB was flushed
system.cpu.itb.stage2_mmu.stage2_tlb.flushTlbMva            0                       # Number of times TLB was flushed by MVA
system.cpu.itb.stage2_mmu.stage2_tlb.flushTlbMvaAsid            0                       # Number of times TLB was flushed by MVA & ASID
system.cpu.itb.stage2_mmu.stage2_tlb.flushTlbAsid            0                       # Number of times TLB was flushed by ASID
system.cpu.itb.stage2_mmu.stage2_tlb.flushedEntries            0                       # Number of entries that have been flushed from TLB
system.cpu.itb.stage2_mmu.stage2_tlb.alignFaults            0                       # Number of TLB faults due to alignment restrictions
system.cpu.itb.stage2_mmu.stage2_tlb.prefetchFaults            0                       # Number of TLB faults due to prefetch
system.cpu.itb.stage2_mmu.stage2_tlb.domainFaults            0                       # Number of TLB faults due to domain restrictions
system.cpu.itb.stage2_mmu.stage2_tlb.permsFaults            0                       # Number of TLB faults due to permissions restrictions
system.cpu.itb.stage2_mmu.stage2_tlb.readAccesses            0                       # DTB read accesses
system.cpu.itb.stage2_mmu.stage2_tlb.writeAccesses            0                       # DTB write accesses
system.cpu.itb.stage2_mmu.stage2_tlb.instAccesses            0                       # ITB inst accesses
system.cpu.itb.stage2_mmu.stage2_tlb.hits            0                       # Total TLB (inst and data) hits
system.cpu.itb.stage2_mmu.stage2_tlb.misses            0                       # Total TLB (inst and data) misses
system.cpu.itb.stage2_mmu.stage2_tlb.accesses            0                       # Total TLB (inst and data) accesses
system.cpu.itb.stage2_mmu.stage2_tlb.walker.walks            0                       # Table walker walks requested
system.cpu.itb.stage2_mmu.stage2_tlb.walker.requestOrigin_Requested::Data            0                       # Table walker requests started/completed, data/inst
system.cpu.itb.stage2_mmu.stage2_tlb.walker.requestOrigin_Requested::Inst            0                       # Table walker requests started/completed, data/inst
system.cpu.itb.stage2_mmu.stage2_tlb.walker.requestOrigin_Requested::total            0                       # Table walker requests started/completed, data/inst
system.cpu.itb.stage2_mmu.stage2_tlb.walker.requestOrigin_Completed::Data            0                       # Table walker requests started/completed, data/inst
system.cpu.itb.stage2_mmu.stage2_tlb.walker.requestOrigin_Completed::Inst            0                       # Table walker requests started/completed, data/inst
system.cpu.itb.stage2_mmu.stage2_tlb.walker.requestOrigin_Completed::total            0                       # Table walker requests started/completed, data/inst
system.cpu.itb.stage2_mmu.stage2_tlb.walker.requestOrigin::total            0                       # Table walker requests started/completed, data/inst
system.cpu.itb.stage2_mmu.stage2_tlb.walker.power_state.pwrStateResidencyTicks::UNDEFINED 167271640000                       # Cumulative time (in ticks) in various power states
system.cpu.itb.walker.walks                         0                       # Table walker walks requested
system.cpu.itb.walker.requestOrigin_Requested::Data            0                       # Table walker requests started/completed, data/inst
system.cpu.itb.walker.requestOrigin_Requested::Inst            0                       # Table walker requests started/completed, data/inst
system.cpu.itb.walker.requestOrigin_Requested::total            0                       # Table walker requests started/completed, data/inst
system.cpu.itb.walker.requestOrigin_Completed::Data            0                       # Table walker requests started/completed, data/inst
system.cpu.itb.walker.requestOrigin_Completed::Inst            0                       # Table walker requests started/completed, data/inst
system.cpu.itb.walker.requestOrigin_Completed::total            0                       # Table walker requests started/completed, data/inst
system.cpu.itb.walker.requestOrigin::total            0                       # Table walker requests started/completed, data/inst
system.cpu.itb.walker.power_state.pwrStateResidencyTicks::UNDEFINED 167271640000                       # Cumulative time (in ticks) in various power states
system.cpu.power_state.pwrStateResidencyTicks::ON 167271640000                       # Cumulative time (in ticks) in various power states
system.cpu.thread_0.numInsts                100000000                       # Number of Instructions committed
system.cpu.thread_0.numOps                  100003676                       # Number of Ops committed
system.cpu.thread_0.numMemRefs                      0                       # Number of Memory References
system.cpu_clk_domain.clock                      1000                       # Clock period in ticks
system.cpu_voltage_domain.voltage                   1                       # Voltage in Volts
system.l2.demand_hits::.cpu.inst                   51                       # number of demand (read+write) hits
system.l2.demand_hits::.cpu.data                44659                       # number of demand (read+write) hits
system.l2.demand_hits::total                    44710                       # number of demand (read+write) hits
system.l2.overall_hits::.cpu.inst                  51                       # number of overall hits
system.l2.overall_hits::.cpu.data               44659                       # number of overall hits
system.l2.overall_hits::total                   44710                       # number of overall hits
system.l2.demand_misses::.cpu.inst                237                       # number of demand (read+write) misses
system.l2.demand_misses::.cpu.data             372312                       # number of demand (read+write) misses
system.l2.demand_misses::total                 372549                       # number of demand (read+write) misses
system.l2.overall_misses::.cpu.inst               237                       # number of overall misses
system.l2.overall_misses::.cpu.data            372312                       # number of overall misses
system.l2.overall_misses::total                372549                       # number of overall misses
system.l2.demand_miss_latency::.cpu.inst     27513000                       # number of demand (read+write) miss cycles
system.l2.demand_miss_latency::.cpu.data  44414195000                       # number of demand (read+write) miss cycles
system.l2.demand_miss_latency::total      44441708000                       # number of demand (read+write) miss cycles
system.l2.overall_miss_latency::.cpu.inst     27513000                       # number of overall miss cycles
system.l2.overall_miss_latency::.cpu.data  44414195000                       # number of overall miss cycles
system.l2.overall_miss_latency::total     44441708000                       # number of overall miss cycles
system.l2.demand_accesses::.cpu.inst              288                       # number of demand (read+write) accesses
system.l2.demand_accesses::.cpu.data           416971                       # number of demand (read+write) accesses
system.l2.demand_accesses::total               417259                       # number of demand (read+write) accesses
system.l2.overall_accesses::.cpu.inst             288                       # number of overall (read+write) accesses
system.l2.overall_accesses::.cpu.data          416971                       # number of overall (read+write) accesses
system.l2.overall_accesses::total              417259                       # number of overall (read+write) accesses
system.l2.demand_miss_rate::.cpu.inst        0.822917                       # miss rate for demand accesses
system.l2.demand_miss_rate::.cpu.data        0.892897                       # miss rate for demand accesses
system.l2.demand_miss_rate::total            0.892848                       # miss rate for demand accesses
system.l2.overall_miss_rate::.cpu.inst       0.822917                       # miss rate for overall accesses
system.l2.overall_miss_rate::.cpu.data       0.892897                       # miss rate for overall accesses
system.l2.overall_miss_rate::total           0.892848                       # miss rate for overall accesses
system.l2.demand_avg_miss_latency::.cpu.inst 116088.607595                       # average overall miss latency
system.l2.demand_avg_miss_latency::.cpu.data 119292.945164                       # average overall miss latency
system.l2.demand_avg_miss_latency::total 119290.906700                       # average overall miss latency
system.l2.overall_avg_miss_latency::.cpu.inst 116088.607595                       # average overall miss latency
system.l2.overall_avg_miss_latency::.cpu.data 119292.945164                       # average overall miss latency
system.l2.overall_avg_miss_latency::total 119290.906700                       # average overall miss latency
system.l2.blocked_cycles::no_mshrs                  0                       # number of cycles access was blocked
system.l2.blocked_cycles::no_targets                0                       # number of cycles access was blocked
system.l2.blocked::no_mshrs                         0                       # number of cycles access was blocked
system.l2.blocked::no_targets                       0                       # number of cycles access was blocked
system.l2.avg_blocked_cycles::no_mshrs            nan                       # average number of cycles each access was blocked
system.l2.avg_blocked_cycles::no_targets          nan                       # average number of cycles each access was blocked
system.l2.writebacks::.writebacks              355513                       # number of writebacks
system.l2.writebacks::total                    355513                       # number of writebacks
system.l2.demand_mshr_hits::.cpu.data               5                       # number of demand (read+write) MSHR hits
system.l2.demand_mshr_hits::total                   5                       # number of demand (read+write) MSHR hits
system.l2.overall_mshr_hits::.cpu.data              5                       # number of overall MSHR hits
system.l2.overall_mshr_hits::total                  5                       # number of overall MSHR hits
system.l2.demand_mshr_misses::.cpu.inst           237                       # number of demand (read+write) MSHR misses
system.l2.demand_mshr_misses::.cpu.data        372307                       # number of demand (read+write) MSHR misses
system.l2.demand_mshr_misses::total            372544                       # number of demand (read+write) MSHR misses
system.l2.overall_mshr_misses::.cpu.inst          237                       # number of overall MSHR misses
system.l2.overall_mshr_misses::.cpu.data       372307                       # number of overall MSHR misses
system.l2.overall_mshr_misses::total           372544                       # number of overall MSHR misses
system.l2.demand_mshr_miss_latency::.cpu.inst     22773000                       # number of demand (read+write) MSHR miss cycles
system.l2.demand_mshr_miss_latency::.cpu.data  36967312000                       # number of demand (read+write) MSHR miss cycles
system.l2.demand_mshr_miss_latency::total  36990085000                       # number of demand (read+write) MSHR miss cycles
system.l2.overall_mshr_miss_latency::.cpu.inst     22773000                       # number of overall MSHR miss cycles
system.l2.overall_mshr_miss_latency::.cpu.data  36967312000                       # number of overall MSHR miss cycles
system.l2.overall_mshr_miss_latency::total  36990085000                       # number of overall MSHR miss cycles
system.l2.demand_mshr_miss_rate::.cpu.inst     0.822917                       # mshr miss rate for demand accesses
system.l2.demand_mshr_miss_rate::.cpu.data     0.892885                       # mshr miss rate for demand accesses
system.l2.demand_mshr_miss_rate::total       0.892836                       # mshr miss rate for demand accesses
system.l2.overall_mshr_miss_rate::.cpu.inst     0.822917                       # mshr miss rate for overall accesses
system.l2.overall_mshr_miss_rate::.cpu.data     0.892885                       # mshr miss rate for overall accesses
system.l2.overall_mshr_miss_rate::total      0.892836                       # mshr miss rate for overall accesses
system.l2.demand_avg_mshr_miss_latency::.cpu.inst 96088.607595                       # average overall mshr miss latency
system.l2.demand_avg_mshr_miss_latency::.cpu.data 99292.551577                       # average overall mshr miss latency
system.l2.demand_avg_mshr_miss_latency::total 99290.513335                       # average overall mshr miss latency
system.l2.overall_avg_mshr_miss_latency::.cpu.inst 96088.607595                       # average overall mshr miss latency
system.l2.overall_avg_mshr_miss_latency::.cpu.data 99292.551577                       # average overall mshr miss latency
system.l2.overall_avg_mshr_miss_latency::total 99290.513335                       # average overall mshr miss latency
system.l2.replacements                         357238                       # number of replacements
system.l2.WritebackDirty_hits::.writebacks       404781                       # number of WritebackDirty hits
system.l2.WritebackDirty_hits::total           404781                       # number of WritebackDirty hits
system.l2.WritebackDirty_accesses::.writebacks       404781                       # number of WritebackDirty accesses(hits+misses)
system.l2.WritebackDirty_accesses::total       404781                       # number of WritebackDirty accesses(hits+misses)
system.l2.WritebackClean_hits::.writebacks           74                       # number of WritebackClean hits
system.l2.WritebackClean_hits::total               74                       # number of WritebackClean hits
system.l2.WritebackClean_accesses::.writebacks           74                       # number of WritebackClean accesses(hits+misses)
system.l2.WritebackClean_accesses::total           74                       # number of WritebackClean accesses(hits+misses)
system.l2.ReadExReq_hits::.cpu.data             21780                       # number of ReadExReq hits
system.l2.ReadExReq_hits::total                 21780                       # number of ReadExReq hits
system.l2.ReadExReq_misses::.cpu.data          371885                       # number of ReadExReq misses
system.l2.ReadExReq_misses::total              371885                       # number of ReadExReq misses
system.l2.ReadExReq_miss_latency::.cpu.data  44361545000                       # number of ReadExReq miss cycles
system.l2.ReadExReq_miss_latency::total   44361545000                       # number of ReadExReq miss cycles
system.l2.ReadExReq_accesses::.cpu.data        393665                       # number of ReadExReq accesses(hits+misses)
system.l2.ReadExReq_accesses::total            393665                       # number of ReadExReq accesses(hits+misses)
system.l2.ReadExReq_miss_rate::.cpu.data     0.944674                       # miss rate for ReadExReq accesses
system.l2.ReadExReq_miss_rate::total         0.944674                       # miss rate for ReadExReq accesses
system.l2.ReadExReq_avg_miss_latency::.cpu.data 119288.341826                       # average ReadExReq miss latency
system.l2.ReadExReq_avg_miss_latency::total 119288.341826                       # average ReadExReq miss latency
system.l2.ReadExReq_mshr_misses::.cpu.data       371885                       # number of ReadExReq MSHR misses
system.l2.ReadExReq_mshr_misses::total         371885                       # number of ReadExReq MSHR misses
system.l2.ReadExReq_mshr_miss_latency::.cpu.data  36923845000                       # number of ReadExReq MSHR miss cycles
system.l2.ReadExReq_mshr_miss_latency::total  36923845000                       # number of ReadExReq MSHR miss cycles
system.l2.ReadExReq_mshr_miss_rate::.cpu.data     0.944674                       # mshr miss rate for ReadExReq accesses
system.l2.ReadExReq_mshr_miss_rate::total     0.944674                       # mshr miss rate for ReadExReq accesses
system.l2.ReadExReq_avg_mshr_miss_latency::.cpu.data 99288.341826                       # average ReadExReq mshr miss latency
system.l2.ReadExReq_avg_mshr_miss_latency::total 99288.341826                       # average ReadExReq mshr miss latency
system.l2.ReadCleanReq_hits::.cpu.inst             51                       # number of ReadCleanReq hits
system.l2.ReadCleanReq_hits::total                 51                       # number of ReadCleanReq hits
system.l2.ReadCleanReq_misses::.cpu.inst          237                       # number of ReadCleanReq misses
system.l2.ReadCleanReq_misses::total              237                       # number of ReadCleanReq misses
system.l2.ReadCleanReq_miss_latency::.cpu.inst     27513000                       # number of ReadCleanReq miss cycles
system.l2.ReadCleanReq_miss_latency::total     27513000                       # number of ReadCleanReq miss cycles
system.l2.ReadCleanReq_accesses::.cpu.inst          288                       # number of ReadCleanReq accesses(hits+misses)
system.l2.ReadCleanReq_accesses::total            288                       # number of ReadCleanReq accesses(hits+misses)
system.l2.ReadCleanReq_miss_rate::.cpu.inst     0.822917                       # miss rate for ReadCleanReq accesses
system.l2.ReadCleanReq_miss_rate::total      0.822917                       # miss rate for ReadCleanReq accesses
system.l2.ReadCleanReq_avg_miss_latency::.cpu.inst 116088.607595                       # average ReadCleanReq miss latency
system.l2.ReadCleanReq_avg_miss_latency::total 116088.607595                       # average ReadCleanReq miss latency
system.l2.ReadCleanReq_mshr_misses::.cpu.inst          237                       # number of ReadCleanReq MSHR misses
system.l2.ReadCleanReq_mshr_misses::total          237                       # number of ReadCleanReq MSHR misses
system.l2.ReadCleanReq_mshr_miss_latency::.cpu.inst     22773000                       # number of ReadCleanReq MSHR miss cycles
system.l2.ReadCleanReq_mshr_miss_latency::total     22773000                       # number of ReadCleanReq MSHR miss cycles
system.l2.ReadCleanReq_mshr_miss_rate::.cpu.inst     0.822917                       # mshr miss rate for ReadCleanReq accesses
system.l2.ReadCleanReq_mshr_miss_rate::total     0.822917                       # mshr miss rate for ReadCleanReq accesses
system.l2.ReadCleanReq_avg_mshr_miss_latency::.cpu.inst 96088.607595                       # average ReadCleanReq mshr miss latency
system.l2.ReadCleanReq_avg_mshr_miss_latency::total 96088.607595                       # average ReadCleanReq mshr miss latency
system.l2.ReadSharedReq_hits::.cpu.data         22879                       # number of ReadSharedReq hits
system.l2.ReadSharedReq_hits::total             22879                       # number of ReadSharedReq hits
system.l2.ReadSharedReq_misses::.cpu.data          427                       # number of ReadSharedReq misses
system.l2.ReadSharedReq_misses::total             427                       # number of ReadSharedReq misses
system.l2.ReadSharedReq_miss_latency::.cpu.data     52650000                       # number of ReadSharedReq miss cycles
system.l2.ReadSharedReq_miss_latency::total     52650000                       # number of ReadSharedReq miss cycles
system.l2.ReadSharedReq_accesses::.cpu.data        23306                       # number of ReadSharedReq accesses(hits+misses)
system.l2.ReadSharedReq_accesses::total         23306                       # number of ReadSharedReq accesses(hits+misses)
system.l2.ReadSharedReq_miss_rate::.cpu.data     0.018321                       # miss rate for ReadSharedReq accesses
system.l2.ReadSharedReq_miss_rate::total     0.018321                       # miss rate for ReadSharedReq accesses
system.l2.ReadSharedReq_avg_miss_latency::.cpu.data 123302.107728                       # average ReadSharedReq miss latency
system.l2.ReadSharedReq_avg_miss_latency::total 123302.107728                       # average ReadSharedReq miss latency
system.l2.ReadSharedReq_mshr_hits::.cpu.data            5                       # number of ReadSharedReq MSHR hits
system.l2.ReadSharedReq_mshr_hits::total            5                       # number of ReadSharedReq MSHR hits
system.l2.ReadSharedReq_mshr_misses::.cpu.data          422                       # number of ReadSharedReq MSHR misses
system.l2.ReadSharedReq_mshr_misses::total          422                       # number of ReadSharedReq MSHR misses
system.l2.ReadSharedReq_mshr_miss_latency::.cpu.data     43467000                       # number of ReadSharedReq MSHR miss cycles
system.l2.ReadSharedReq_mshr_miss_latency::total     43467000                       # number of ReadSharedReq MSHR miss cycles
system.l2.ReadSharedReq_mshr_miss_rate::.cpu.data     0.018107                       # mshr miss rate for ReadSharedReq accesses
system.l2.ReadSharedReq_mshr_miss_rate::total     0.018107                       # mshr miss rate for ReadSharedReq accesses
system.l2.ReadSharedReq_avg_mshr_miss_latency::.cpu.data 103002.369668                       # average ReadSharedReq mshr miss latency
system.l2.ReadSharedReq_avg_mshr_miss_latency::total 103002.369668                       # average ReadSharedReq mshr miss latency
system.l2.power_state.pwrStateResidencyTicks::UNDEFINED 167271640000                       # Cumulative time (in ticks) in various power states
system.l2.tags.tagsinuse                 16036.483377                       # Cycle average of tags in use
system.l2.tags.total_refs                      822142                       # Total number of references to valid blocks.
system.l2.tags.sampled_refs                    373622                       # Sample count of references to valid blocks.
system.l2.tags.avg_refs                      2.200465                       # Average number of references to valid blocks.
system.l2.tags.warmup_cycle                    102000                       # Cycle when the warmup percentage was hit.
system.l2.tags.occ_blocks::.writebacks       0.987118                       # Average occupied blocks per requestor
system.l2.tags.occ_blocks::.cpu.inst         9.547068                       # Average occupied blocks per requestor
system.l2.tags.occ_blocks::.cpu.data     16025.949190                       # Average occupied blocks per requestor
system.l2.tags.occ_percent::.writebacks      0.000060                       # Average percentage of cache occupancy
system.l2.tags.occ_percent::.cpu.inst        0.000583                       # Average percentage of cache occupancy
system.l2.tags.occ_percent::.cpu.data        0.978146                       # Average percentage of cache occupancy
system.l2.tags.occ_percent::total            0.978789                       # Average percentage of cache occupancy
system.l2.tags.occ_task_id_blocks::1024         16384                       # Occupied blocks per task id
system.l2.tags.age_task_id_blocks_1024::0           23                       # Occupied blocks per task id
system.l2.tags.age_task_id_blocks_1024::1          202                       # Occupied blocks per task id
system.l2.tags.age_task_id_blocks_1024::2         2000                       # Occupied blocks per task id
system.l2.tags.age_task_id_blocks_1024::3        14159                       # Occupied blocks per task id
system.l2.tags.occ_task_id_percent::1024            1                       # Percentage of cache occupancy per task id
system.l2.tags.tag_accesses                   1195769                       # Number of tag accesses
system.l2.tags.data_accesses                  1195769                       # Number of data accesses
system.l2.tags.power_state.pwrStateResidencyTicks::UNDEFINED 167271640000                       # Cumulative time (in ticks) in various power states
system.mem_ctrls.avgPriority_.writebacks::samples   1422052.00                       # Average QoS priority value for accepted requests
system.mem_ctrls.avgPriority_.cpu.inst::samples       948.00                       # Average QoS priority value for accepted requests
system.mem_ctrls.avgPriority_.cpu.data::samples   1489228.00                       # Average QoS priority value for accepted requests
system.mem_ctrls.priorityMinLatency      0.000000018750                       # per QoS priority minimum request to response latency (s)
system.mem_ctrls.priorityMaxLatency      0.000933178750                       # per QoS priority maximum request to response latency (s)
system.mem_ctrls.numReadWriteTurnArounds        71171                       # Number of turnarounds from READ to WRITE
system.mem_ctrls.numWriteReadTurnArounds        71172                       # Number of turnarounds from WRITE to READ
system.mem_ctrls.numStayReadState             2259937                       # Number of times bus staying in READ state
system.mem_ctrls.numStayWriteState            1351489                       # Number of times bus staying in WRITE state
system.mem_ctrls.readReqs                      372544                       # Number of read requests accepted
system.mem_ctrls.writeReqs                     355513                       # Number of write requests accepted
system.mem_ctrls.readBursts                   1490176                       # Number of controller read bursts, including those serviced by the write queue
system.mem_ctrls.writeBursts                  1422052                       # Number of controller write bursts, including those merged in the write queue
system.mem_ctrls.servicedByWrQ                      0                       # Number of controller read bursts serviced by the write queue
system.mem_ctrls.mergedWrBursts                     0                       # Number of controller write bursts merged with an existing one
system.mem_ctrls.neitherReadNorWriteReqs            0                       # Number of requests that are neither read nor write
system.mem_ctrls.avgRdQLen                       4.00                       # Average read queue length when enqueuing
system.mem_ctrls.avgWrQLen                      25.99                       # Average write queue length when enqueuing
system.mem_ctrls.numRdRetry                         0                       # Number of times read queue was full causing retry
system.mem_ctrls.numWrRetry                         0                       # Number of times write queue was full causing retry
system.mem_ctrls.readPktSize::0                     0                       # Read request sizes (log2)
system.mem_ctrls.readPktSize::1                     0                       # Read request sizes (log2)
system.mem_ctrls.readPktSize::2                     0                       # Read request sizes (log2)
system.mem_ctrls.readPktSize::3                     0                       # Read request sizes (log2)
system.mem_ctrls.readPktSize::4                     0                       # Read request sizes (log2)
system.mem_ctrls.readPktSize::5                     0                       # Read request sizes (log2)
system.mem_ctrls.readPktSize::6               1490176                       # Read request sizes (log2)
system.mem_ctrls.readPktSize::7                     0                       # Read request sizes (log2)
system.mem_ctrls.readPktSize::8                     0                       # Read request sizes (log2)
system.mem_ctrls.writePktSize::0                    0                       # Write request sizes (log2)
system.mem_ctrls.writePktSize::1                    0                       # Write request sizes (log2)
system.mem_ctrls.writePktSize::2                    0                       # Write request sizes (log2)
system.mem_ctrls.writePktSize::3                    0                       # Write request sizes (log2)
system.mem_ctrls.writePktSize::4                    0                       # Write request sizes (log2)
system.mem_ctrls.writePktSize::5                    0                       # Write request sizes (log2)
system.mem_ctrls.writePktSize::6              1422052                       # Write request sizes (log2)
system.mem_ctrls.writePktSize::7                    0                       # Write request sizes (log2)
system.mem_ctrls.writePktSize::8                    0                       # Write request sizes (log2)
system.mem_ctrls.rdQLenPdf::0                  372498                       # What read queue length does an incoming req see
system.mem_ctrls.rdQLenPdf::1                  372517                       # What read queue length does an incoming req see
system.mem_ctrls.rdQLenPdf::2                  372518                       # What read queue length does an incoming req see
system.mem_ctrls.rdQLenPdf::3                  372520                       # What read queue length does an incoming req see
system.mem_ctrls.rdQLenPdf::4                      44                       # What read queue length does an incoming req see
system.mem_ctrls.rdQLenPdf::5                      25                       # What read queue length does an incoming req see
system.mem_ctrls.rdQLenPdf::6                      24                       # What read queue length does an incoming req see
system.mem_ctrls.rdQLenPdf::7                      22                       # What read queue length does an incoming req see
system.mem_ctrls.rdQLenPdf::8                       2                       # What read queue length does an incoming req see
system.mem_ctrls.rdQLenPdf::9                       2                       # What read queue length does an incoming req see
system.mem_ctrls.rdQLenPdf::10                      2                       # What read queue length does an incoming req see
[...]
system.mem_ctrls.dram.bw_write::.writebacks    544092997                       # Write bandwidth from this memory (bytes/s)
system.mem_ctrls.dram.bw_write::total       544092997                       # Write bandwidth from this memory (bytes/s)
system.mem_ctrls.dram.bw_total::.writebacks    544092997                       # Total bandwidth to/from this memory (bytes/s)
system.mem_ctrls.dram.bw_total::.cpu.inst       362715                       # Total bandwidth to/from this memory (bytes/s)
system.mem_ctrls.dram.bw_total::.cpu.data    569795286                       # Total bandwidth to/from this memory (bytes/s)
system.mem_ctrls.dram.bw_total::total      1114250999                       # Total bandwidth to/from this memory (bytes/s)
system.mem_ctrls.dram.readBursts              1490176                       # Number of DRAM read bursts
system.mem_ctrls.dram.writeBursts             1422029                       # Number of DRAM write bursts
system.mem_ctrls.dram.perBankRdBursts::0        94580                       # Per bank write bursts
system.mem_ctrls.dram.perBankRdBursts::1        93012                       # Per bank write bursts
system.mem_ctrls.dram.perBankRdBursts::2        93024                       # Per bank write bursts
system.mem_ctrls.dram.perBankRdBursts::3        92976                       # Per bank write bursts
system.mem_ctrls.dram.perBankRdBursts::4        93024                       # Per bank write bursts
system.mem_ctrls.dram.perBankRdBursts::5        93036                       # Per bank write bursts
system.mem_ctrls.dram.perBankRdBursts::6        93072                       # Per bank write bursts
system.mem_ctrls.dram.perBankRdBursts::7        93088                       # Per bank write bursts
system.mem_ctrls.dram.perBankRdBursts::8        93232                       # Per bank write bursts
system.mem_ctrls.dram.perBankRdBursts::9        93104                       # Per bank write bursts
system.mem_ctrls.dram.perBankRdBursts::10        92996                       # Per bank write bursts
system.mem_ctrls.dram.perBankRdBursts::11        92984                       # Per bank write bursts
system.mem_ctrls.dram.perBankRdBursts::12        93044                       # Per bank write bursts
system.mem_ctrls.dram.perBankRdBursts::13        92988                       # Per bank write bursts
system.mem_ctrls.dram.perBankRdBursts::14        93000                       # Per bank write bursts
system.mem_ctrls.dram.perBankRdBursts::15        93016                       # Per bank write bursts
system.mem_ctrls.dram.perBankWrBursts::0        88844                       # Per bank write bursts
system.mem_ctrls.dram.perBankWrBursts::1        88908                       # Per bank write bursts
system.mem_ctrls.dram.perBankWrBursts::2        88864                       # Per bank write bursts
system.mem_ctrls.dram.perBankWrBursts::3        88856                       # Per bank write bursts
system.mem_ctrls.dram.perBankWrBursts::4        88844                       # Per bank write bursts
system.mem_ctrls.dram.perBankWrBursts::5        88900                       # Per bank write bursts
system.mem_ctrls.dram.perBankWrBursts::6        88960                       # Per bank write bursts
system.mem_ctrls.dram.perBankWrBursts::7        88960                       # Per bank write bursts
system.mem_ctrls.dram.perBankWrBursts::8        88960                       # Per bank write bursts
system.mem_ctrls.dram.perBankWrBursts::9        88941                       # Per bank write bursts
system.mem_ctrls.dram.perBankWrBursts::10        88832                       # Per bank write bursts
system.mem_ctrls.dram.perBankWrBursts::11        88832                       # Per bank write bursts
system.mem_ctrls.dram.perBankWrBursts::12        88832                       # Per bank write bursts
system.mem_ctrls.dram.perBankWrBursts::13        88832                       # Per bank write bursts
system.mem_ctrls.dram.perBankWrBursts::14        88832                       # Per bank write bursts
system.mem_ctrls.dram.perBankWrBursts::15        88832                       # Per bank write bursts
system.mem_ctrls.dram.totQLat             32260621000                       # Total ticks spent queuing
system.mem_ctrls.dram.totBusLat            7450880000                       # Total ticks spent in databus transfers
system.mem_ctrls.dram.totMemAccLat        60201421000                       # Total ticks spent from burst creation until serviced by the DRAM
system.mem_ctrls.dram.avgQLat                21648.87                       # Average queueing delay per DRAM burst
system.mem_ctrls.dram.avgBusLat               5000.00                       # Average bus latency per DRAM burst
system.mem_ctrls.dram.avgMemAccLat           40398.87                       # Average memory access latency per DRAM burst
system.mem_ctrls.dram.readRowHits             1341518                       # Number of row buffer hits during reads
system.mem_ctrls.dram.writeRowHits            1279114                       # Number of row buffer hits during writes
system.mem_ctrls.dram.readRowHitRate            90.02                       # Row buffer hit rate for reads
system.mem_ctrls.dram.writeRowHitRate           89.95                       # Row buffer hit rate for writes
system.mem_ctrls.dram.bytesPerActivate::samples       291571                       # Bytes accessed per row activation
system.mem_ctrls.dram.bytesPerActivate::mean   639.227139                       # Bytes accessed per row activation
system.mem_ctrls.dram.bytesPerActivate::gmean   519.015146                       # Bytes accessed per row activation
system.mem_ctrls.dram.bytesPerActivate::stdev   363.055746                       # Bytes accessed per row activation
system.mem_ctrls.dram.bytesPerActivate::0-127         3200      1.10%      1.10% # Bytes accessed per row activation
system.mem_ctrls.dram.bytesPerActivate::128-255         3795      1.30%      2.40% # Bytes accessed per row activation
system.mem_ctrls.dram.bytesPerActivate::256-383       117722     40.38%     42.77% # Bytes accessed per row activation
system.mem_ctrls.dram.bytesPerActivate::384-511         2344      0.80%     43.58% # Bytes accessed per row activation
system.mem_ctrls.dram.bytesPerActivate::512-639        19182      6.58%     50.16% # Bytes accessed per row activation
system.mem_ctrls.dram.bytesPerActivate::640-767         2187      0.75%     50.91% # Bytes accessed per row activation
system.mem_ctrls.dram.bytesPerActivate::768-895        15315      5.25%     56.16% # Bytes accessed per row activation
system.mem_ctrls.dram.bytesPerActivate::896-1023         3515      1.21%     57.37% # Bytes accessed per row activation
system.mem_ctrls.dram.bytesPerActivate::1024-1151       124311     42.63%    100.00% # Bytes accessed per row activation
system.mem_ctrls.dram.bytesPerActivate::total       291571                       # Bytes accessed per row activation
system.mem_ctrls.dram.bytesRead              95371264                       # Total number of bytes read from DRAM
system.mem_ctrls.dram.bytesWritten           91009856                       # Total number of bytes written to DRAM
system.mem_ctrls.dram.avgRdBW              570.158002                       # Average DRAM read bandwidth in MiBytes/s
system.mem_ctrls.dram.avgWrBW              544.084197                       # Average DRAM write bandwidth in MiBytes/s
system.mem_ctrls.dram.peakBW                 12800.00                       # Theoretical peak bandwidth in MiByte/s
system.mem_ctrls.dram.busUtil                    8.71                       # Data bus utilization in percentage
system.mem_ctrls.dram.busUtilRead                4.45                       # Data bus utilization in percentage for reads
system.mem_ctrls.dram.busUtilWrite               4.25                       # Data bus utilization in percentage for writes
system.mem_ctrls.dram.pageHitRate               89.99                       # Row buffer hit rate, read and write combined
system.mem_ctrls.dram.power_state.pwrStateResidencyTicks::UNDEFINED 167271640000                       # Cumulative time (in ticks) in various power states
system.mem_ctrls.dram.rank0.actEnergy      1040826360                       # Energy for activate commands per rank (pJ)
system.mem_ctrls.dram.rank0.preEnergy       553212330                       # Energy for precharge commands per rank (pJ)
system.mem_ctrls.dram.rank0.readEnergy     5325097680                       # Energy for read commands per rank (pJ)
system.mem_ctrls.dram.rank0.writeEnergy    3712129920                       # Energy for write commands per rank (pJ)
system.mem_ctrls.dram.rank0.refreshEnergy 13203696480.000002                       # Energy for refresh commands per rank (pJ)
system.mem_ctrls.dram.rank0.actBackEnergy  37094555760                       # Energy for active background per rank (pJ)
system.mem_ctrls.dram.rank0.preBackEnergy  32994789120                       # Energy for precharge background per rank (pJ)
system.mem_ctrls.dram.rank0.actPowerDownEnergy            0                       # Energy for active power-down per rank (pJ)
system.mem_ctrls.dram.rank0.prePowerDownEnergy            0                       # Energy for precharge power-down per rank (pJ)
system.mem_ctrls.dram.rank0.selfRefreshEnergy            0                       # Energy for self refresh per rank (pJ)
system.mem_ctrls.dram.rank0.totalEnergy   93924307650                       # Total energy per rank (pJ)
system.mem_ctrls.dram.rank0.averagePower   561.507663                       # Core power per rank (mW)
system.mem_ctrls.dram.rank0.totalIdleTime            0                       # Total Idle time Per DRAM Rank
system.mem_ctrls.dram.rank0.pwrStateTime::IDLE  84408304500                       # Time in different power states
system.mem_ctrls.dram.rank0.pwrStateTime::REF   5585320000                       # Time in different power states
system.mem_ctrls.dram.rank0.pwrStateTime::SREF            0                       # Time in different power states
system.mem_ctrls.dram.rank0.pwrStateTime::PRE_PDN            0                       # Time in different power states
system.mem_ctrls.dram.rank0.pwrStateTime::ACT  77278015500                       # Time in different power states
system.mem_ctrls.dram.rank0.pwrStateTime::ACT_PDN            0                       # Time in different power states
system.mem_ctrls.dram.rank1.actEnergy      1041004860                       # Energy for activate commands per rank (pJ)
system.mem_ctrls.dram.rank1.preEnergy       553299615                       # Energy for precharge commands per rank (pJ)
system.mem_ctrls.dram.rank1.readEnergy     5314758960                       # Energy for read commands per rank (pJ)
system.mem_ctrls.dram.rank1.writeEnergy    3710835360                       # Energy for write commands per rank (pJ)
system.mem_ctrls.dram.rank1.refreshEnergy 13203696480.000002                       # Energy for refresh commands per rank (pJ)
system.mem_ctrls.dram.rank1.actBackEnergy  36380365710                       # Energy for active background per rank (pJ)
system.mem_ctrls.dram.rank1.preBackEnergy  33596212320                       # Energy for precharge background per rank (pJ)
system.mem_ctrls.dram.rank1.actPowerDownEnergy            0                       # Energy for active power-down per rank (pJ)
system.mem_ctrls.dram.rank1.prePowerDownEnergy            0                       # Energy for precharge power-down per rank (pJ)
system.mem_ctrls.dram.rank1.selfRefreshEnergy            0                       # Energy for self refresh per rank (pJ)
system.mem_ctrls.dram.rank1.totalEnergy   93800173305                       # Total energy per rank (pJ)
system.mem_ctrls.dram.rank1.averagePower   560.765551                       # Core power per rank (mW)
system.mem_ctrls.dram.rank1.totalIdleTime            0                       # Total Idle time Per DRAM Rank
system.mem_ctrls.dram.rank1.pwrStateTime::IDLE  86000110250                       # Time in different power states
system.mem_ctrls.dram.rank1.pwrStateTime::REF   5585320000                       # Time in different power states
system.mem_ctrls.dram.rank1.pwrStateTime::SREF            0                       # Time in different power states
system.mem_ctrls.dram.rank1.pwrStateTime::PRE_PDN            0                       # Time in different power states
system.mem_ctrls.dram.rank1.pwrStateTime::ACT  75686209750                       # Time in different power states
system.mem_ctrls.dram.rank1.pwrStateTime::ACT_PDN            0                       # Time in different power states
system.mem_ctrls.power_state.pwrStateResidencyTicks::UNDEFINED 167271640000                       # Cumulative time (in ticks) in various power states
system.membus.trans_dist::ReadResp                659                       # Transaction distribution
system.membus.trans_dist::WritebackDirty       355513                       # Transaction distribution
system.membus.trans_dist::CleanEvict               63                       # Transaction distribution
system.membus.trans_dist::ReadExReq            371885                       # Transaction distribution
system.membus.trans_dist::ReadExResp           371885                       # Transaction distribution
system.membus.trans_dist::ReadSharedReq           659                       # Transaction distribution
system.membus.pkt_count_system.l2.mem_side_port::system.mem_ctrls.port      1100664                       # Packet count per connected requestor and responder (bytes)
system.membus.pkt_count::total                1100664                       # Packet count per connected requestor and responder (bytes)
system.membus.pkt_size_system.l2.mem_side_port::system.mem_ctrls.port    186382592                       # Cumulative packet size per connected requestor and responder (bytes)
system.membus.pkt_size::total               186382592                       # Cumulative packet size per connected requestor and responder (bytes)
system.membus.snoops                                0                       # Total snoops (count)
system.membus.snoopTraffic                          0                       # Total snoop traffic (bytes)
system.membus.snoop_fanout::samples            372544                       # Request fanout histogram
system.membus.snoop_fanout::mean                    0                       # Request fanout histogram
system.membus.snoop_fanout::stdev                   0                       # Request fanout histogram
system.membus.snoop_fanout::underflows              0      0.00%      0.00% # Request fanout histogram
system.membus.snoop_fanout::0                  372544    100.00%    100.00% # Request fanout histogram
system.membus.snoop_fanout::1                       0      0.00%    100.00% # Request fanout histogram
system.membus.snoop_fanout::overflows               0      0.00%    100.00% # Request fanout histogram
system.membus.snoop_fanout::min_value               0                       # Request fanout histogram
system.membus.snoop_fanout::max_value               0                       # Request fanout histogram
system.membus.snoop_fanout::total              372544                       # Request fanout histogram
system.membus.power_state.pwrStateResidencyTicks::UNDEFINED 167271640000                       # Cumulative time (in ticks) in various power states
system.membus.reqLayer0.occupancy          6416328000                       # Layer occupancy (ticks)
system.membus.reqLayer0.utilization               3.8                       # Layer utilization (%)
system.membus.respLayer1.occupancy         6478405750                       # Layer occupancy (ticks)
system.membus.respLayer1.utilization              3.9                       # Layer utilization (%)
system.tol2bus.trans_dist::ReadResp             23594                       # Transaction distribution
system.tol2bus.trans_dist::WritebackDirty       760294                       # Transaction distribution
system.tol2bus.trans_dist::WritebackClean           77                       # Transaction distribution
system.tol2bus.trans_dist::CleanEvict           13403                       # Transaction distribution
system.tol2bus.trans_dist::ReadExReq           393665                       # Transaction distribution
system.tol2bus.trans_dist::ReadExResp          393665                       # Transaction distribution
system.tol2bus.trans_dist::ReadCleanReq           288                       # Transaction distribution
system.tol2bus.trans_dist::ReadSharedReq        23306                       # Transaction distribution
system.tol2bus.pkt_count_system.cpu.icache.mem_side_port::system.l2.cpu_side_port          653                       # Packet count per connected requestor and responder (bytes)
system.tol2bus.pkt_count_system.cpu.dcache.mem_side_port::system.l2.cpu_side_port      1250401                       # Packet count per connected requestor and responder (bytes)
system.tol2bus.pkt_count::total               1251054                       # Packet count per connected requestor and responder (bytes)
system.tol2bus.pkt_size_system.cpu.icache.mem_side_port::system.l2.cpu_side_port        93440                       # Cumulative packet size per connected requestor and responder (bytes)
system.tol2bus.pkt_size_system.cpu.dcache.mem_side_port::system.l2.cpu_side_port    210368512                       # Cumulative packet size per connected requestor and responder (bytes)
system.tol2bus.pkt_size::total              210461952                       # Cumulative packet size per connected requestor and responder (bytes)
system.tol2bus.snoops                          357238                       # Total snoops (count)
system.tol2bus.snoopTraffic                  91011328                       # Total snoop traffic (bytes)
system.tol2bus.snoop_fanout::samples           774497                       # Request fanout histogram
system.tol2bus.snoop_fanout::mean            0.017670                       # Request fanout histogram
system.tol2bus.snoop_fanout::stdev           0.135363                       # Request fanout histogram
system.tol2bus.snoop_fanout::underflows             0      0.00%      0.00% # Request fanout histogram
system.tol2bus.snoop_fanout::0                 761186     98.28%     98.28% # Request fanout histogram
system.tol2bus.snoop_fanout::1                  12937      1.67%     99.95% # Request fanout histogram
system.tol2bus.snoop_fanout::2                    374      0.05%    100.00% # Request fanout histogram
system.tol2bus.snoop_fanout::overflows              0      0.00%    100.00% # Request fanout histogram
system.tol2bus.snoop_fanout::min_value              0                       # Request fanout histogram
system.tol2bus.snoop_fanout::max_value              2                       # Request fanout histogram
system.tol2bus.snoop_fanout::total             774497                       # Request fanout histogram
system.tol2bus.power_state.pwrStateResidencyTicks::UNDEFINED 167271640000                       # Cumulative time (in ticks) in various power states
system.tol2bus.reqLayer0.occupancy         4072659000                       # Layer occupancy (ticks)
system.tol2bus.reqLayer0.utilization              2.4                       # Layer utilization (%)
system.tol2bus.respLayer0.occupancy           2592000                       # Layer occupancy (ticks)
system.tol2bus.respLayer0.utilization             0.0                       # Layer utilization (%)
system.tol2bus.respLayer1.occupancy        3752743995                       # Layer occupancy (ticks)
system.tol2bus.respLayer1.utilization             2.2                       # Layer utilization (%)
system.voltage_domain.voltage                       1                       # Voltage in Volts

---------- End Simulation Statistics   ----------
