
---------- Begin Simulation Statistics ----------
final_tick                                58315466000                       # Number of ticks from beginning of simulation (restored from checkpoints and never reset)
host_inst_rate                                 198235                       # Simulator instruction rate (inst/s)
host_mem_usage                                 685292                       # Number of bytes of host memory used
host_op_rate                                   216931                       # Simulator op (including micro ops) rate (op/s)
host_seconds                                   504.45                       # Real time elapsed on the host
host_tick_rate                              115601730                       # Simulator tick rate (ticks/s)
sim_freq                                 1000000000000                       # Frequency of simulated ticks
sim_insts                                   100000001                       # Number of instructions simulated
sim_ops                                     109431277                       # Number of ops (including micro ops) simulated
sim_seconds                                  0.058315                       # Number of seconds simulated
sim_ticks                                 58315466000                       # Number of ticks simulated
system.cpu.committedInsts                   100000001                       # Number of instructions committed
system.cpu.committedOps                     109431277                       # Number of ops (including micro ops) committed
system.cpu.cpi                               1.166309                       # CPI: cycles per instruction
system.cpu.discardedOps                        376427                       # Number of ops (including micro ops) which were discarded before commit
system.cpu.idleCycles                         5388307                       # Total number of cycles that the object has spent stopped
system.cpu.ipc                               0.857405                       # IPC: instructions per cycle
system.cpu.numCycles                        116630932                       # number of cpu cycles simulated
system.cpu.numFetchSuspends                         0                       # Number of times Execute suspended instruction fetching
system.cpu.numWorkItemsCompleted                    0                       # number of work items this cpu completed
system.cpu.numWorkItemsStarted                      0                       # number of work items this cpu started
system.cpu.op_class_0::No_OpClass                   0      0.00%      0.00% # Class of committed instruction
system.cpu.op_class_0::IntAlu                72955010     66.67%     66.67% # Class of committed instruction
system.cpu.op_class_0::IntMult                 568364      0.52%     67.19% # Class of committed instruction
system.cpu.op_class_0::IntDiv                       0      0.00%     67.19% # Class of committed instruction
system.cpu.op_class_0::FloatAdd                     0      0.00%     67.19% # Class of committed instruction
system.cpu.op_class_0::FloatCmp                     0      0.00%     67.19% # Class of committed instruction
system.cpu.op_class_0::FloatCvt                     0      0.00%     67.19% # Class of committed instruction
system.cpu.op_class_0::FloatMult                    0      0.00%     67.19% # Class of committed instruction
system.cpu.op_class_0::FloatMultAcc                 0      0.00%     67.19% # Class of committed instruction
system.cpu.op_class_0::FloatDiv                     0      0.00%     67.19% # Class of committed instruction
system.cpu.op_class_0::FloatMisc                    0      0.00%     67.19% # Class of committed instruction
system.cpu.op_class_0::FloatSqrt                    0      0.00%     67.19% # Class of committed instruction
system.cpu.op_class_0::SimdAdd                 241336      0.22%     67.41% # Class of committed instruction
system.cpu.op_class_0::SimdAddAcc                   0      0.00%     67.41% # Class of committed instruction
system.cpu.op_class_0::SimdAlu                 154628      0.14%     67.55% # Class of committed instruction
system.cpu.op_class_0::SimdCmp                 120668      0.11%     67.66% # Class of committed instruction
system.cpu.op_class_0::SimdCvt                      0      0.00%     67.66% # Class of committed instruction
system.cpu.op_class_0::SimdMisc                 44543      0.04%     67.70% # Class of committed instruction
system.cpu.op_class_0::SimdMult                     0      0.00%     67.70% # Class of committed instruction
system.cpu.op_class_0::SimdMultAcc                  0      0.00%     67.70% # Class of committed instruction
system.cpu.op_class_0::SimdShift                    0      0.00%     67.70% # Class of committed instruction
system.cpu.op_class_0::SimdShiftAcc                 0      0.00%     67.70% # Class of committed instruction
system.cpu.op_class_0::SimdDiv                      0      0.00%     67.70% # Class of committed instruction
system.cpu.op_class_0::SimdSqrt                     0      0.00%     67.70% # Class of committed instruction
system.cpu.op_class_0::SimdFloatAdd                 0      0.00%     67.70% # Class of committed instruction
system.cpu.op_class_0::SimdFloatAlu                 0      0.00%     67.70% # Class of committed instruction
system.cpu.op_class_0::SimdFloatCmp                 0      0.00%     67.70% # Class of committed instruction
system.cpu.op_class_0::SimdFloatCvt                 0      0.00%     67.70% # Class of committed instruction
system.cpu.op_class_0::SimdFloatDiv                 0      0.00%     67.70% # Class of committed instruction
system.cpu.op_class_0::SimdFloatMisc           166417      0.15%     67.85% # Class of committed instruction
system.cpu.op_class_0::SimdFloatMult                0      0.00%     67.85% # Class of committed instruction
system.cpu.op_class_0::SimdFloatMultAcc             0      0.00%     67.85% # Class of committed instruction
system.cpu.op_class_0::SimdFloatSqrt                0      0.00%     67.85% # Class of committed instruction
system.cpu.op_class_0::SimdReduceAdd                0      0.00%     67.85% # Class of committed instruction
system.cpu.op_class_0::SimdReduceAlu                0      0.00%     67.85% # Class of committed instruction
system.cpu.op_class_0::SimdReduceCmp                0      0.00%     67.85% # Class of committed instruction
system.cpu.op_class_0::SimdFloatReduceAdd            0      0.00%     67.85% # Class of committed instruction
system.cpu.op_class_0::SimdFloatReduceCmp            0      0.00%     67.85% # Class of committed instruction
system.cpu.op_class_0::SimdAes                      0      0.00%     67.85% # Class of committed instruction
system.cpu.op_class_0::SimdAesMix                   0      0.00%     67.85% # Class of committed instruction
system.cpu.op_class_0::SimdSha1Hash                 0      0.00%     67.85% # Class of committed instruction
system.cpu.op_class_0::SimdSha1Hash2                0      0.00%     67.85% # Class of committed instruction
system.cpu.op_class_0::SimdSha256Hash               0      0.00%     67.85% # Class of committed instruction
system.cpu.op_class_0::SimdSha256Hash2              0      0.00%     67.85% # Class of committed instruction
system.cpu.op_class_0::SimdShaSigma2                0      0.00%     67.85% # Class of committed instruction
system.cpu.op_class_0::SimdShaSigma3                0      0.00%     67.85% # Class of committed instruction
system.cpu.op_class_0::SimdPredAlu                  0      0.00%     67.85% # Class of committed instruction
system.cpu.op_class_0::MemRead               20645992     18.87%     86.72% # Class of committed instruction
system.cpu.op_class_0::MemWrite              14534319     13.28%    100.00% # Class of committed instruction
system.cpu.op_class_0::FloatMemRead                 0      0.00%    100.00% # Class of committed instruction
system.cpu.op_class_0::FloatMemWrite                0      0.00%    100.00% # Class of committed instruction
system.cpu.op_class_0::IprAccess                    0      0.00%    100.00% # Class of committed instruction
system.cpu.op_class_0::InstPrefetch                 0      0.00%    100.00% # Class of committed instruction
system.cpu.op_class_0::total                109431277                       # Class of committed instruction
system.cpu.tickCycles                       111242625                       # Number of cycles that the object actually ticked
system.cpu.workload.numSyscalls                    87                       # Number of system calls
system.membus.snoop_filter.hit_multi_requests            0                       # Number of requests hitting in the snoop filter with multiple (>1) holders of the requested data.
system.membus.snoop_filter.hit_multi_snoops            0                       # Number of snoops hitting in the snoop filter with multiple (>1) holders of the requested data.
system.membus.snoop_filter.hit_single_requests            0                       # Number of requests hitting in the snoop filter with a single holder of the requested data.
system.membus.snoop_filter.hit_single_snoops            0                       # Number of snoops hitting in the snoop filter with a single holder of the requested data.
system.membus.snoop_filter.tot_requests         78808                       # Total number of requests made to the snoop filter.
system.membus.snoop_filter.tot_snoops               0                       # Total number of snoops made to the snoop filter.
system.tol2bus.snoop_filter.hit_multi_requests           19                       # Number of requests hitting in the snoop filter with multiple (>1) holders of the requested data.
system.tol2bus.snoop_filter.hit_multi_snoops            0                       # Number of snoops hitting in the snoop filter with multiple (>1) holders of the requested data.
system.tol2bus.snoop_filter.hit_single_requests        88915                       # Number of requests hitting in the snoop filter with a single holder of the requested data.
system.tol2bus.snoop_filter.hit_single_snoops            0                       # Number of snoops hitting in the snoop filter with a single holder of the requested data.
system.tol2bus.snoop_filter.tot_requests       180604                       # Total number of requests made to the snoop filter.
system.tol2bus.snoop_filter.tot_snoops              0                       # Total number of snoops made to the snoop filter.
system.clk_domain.clock                          1000                       # Clock period in ticks
system.cpu.branchPred.lookups                20357855                       # Number of BP lookups
system.cpu.branchPred.condPredicted          16295237                       # Number of conditional branches predicted
system.cpu.branchPred.condIncorrect             53382                       # Number of conditional branches incorrect
system.cpu.branchPred.BTBLookups              8737317                       # Number of BTB lookups
system.cpu.branchPred.BTBHits                 8736096                       # Number of BTB hits
system.cpu.branchPred.BTBHitPct             99.986025                       # BTB Hit Percentage
system.cpu.branchPred.RASUsed                 1050554                       # Number of times the RAS was used to get a target.
system.cpu.branchPred.RASIncorrect                321                       # Number of incorrect RAS predictions.
system.cpu.branchPred.indirectLookups          433986                       # Number of indirect predictor lookups.
system.cpu.branchPred.indirectHits             300036                       # Number of indirect target hits.
system.cpu.branchPred.indirectMisses           133950                       # Number of indirect misses.
system.cpu.branchPred.indirectMispredicted         1044                       # Number of mispredicted indirect branches.
system.cpu.dcache.demand_hits::.cpu.data     35716902                       # number of demand (read+write) hits
system.cpu.dcache.demand_hits::total         35716902                       # number of demand (read+write) hits
system.cpu.dcache.overall_hits::.cpu.data     35720231                       # number of overall hits
system.cpu.dcache.overall_hits::total        35720231                       # number of overall hits
system.cpu.dcache.demand_misses::.cpu.data       109626                       # number of demand (read+write) misses
system.cpu.dcache.demand_misses::total         109626                       # number of demand (read+write) misses
system.cpu.dcache.overall_misses::.cpu.data       109658                       # number of overall misses
system.cpu.dcache.overall_misses::total        109658                       # number of overall misses
system.cpu.dcache.demand_miss_latency::.cpu.data   7506035000                       # number of demand (read+write) miss cycles
system.cpu.dcache.demand_miss_latency::total   7506035000                       # number of demand (read+write) miss cycles
system.cpu.dcache.overall_miss_latency::.cpu.data   7506035000                       # number of overall miss cycles
system.cpu.dcache.overall_miss_latency::total   7506035000                       # number of overall miss cycles
system.cpu.dcache.demand_accesses::.cpu.data     35826528                       # number of demand (read+write) accesses
system.cpu.dcache.demand_accesses::total     35826528                       # number of demand (read+write) accesses
system.cpu.dcache.overall_accesses::.cpu.data     35829889                       # number of overall (read+write) accesses
system.cpu.dcache.overall_accesses::total     35829889                       # number of overall (read+write) accesses
system.cpu.dcache.demand_miss_rate::.cpu.data     0.003060                       # miss rate for demand accesses
system.cpu.dcache.demand_miss_rate::total     0.003060                       # miss rate for demand accesses
system.cpu.dcache.overall_miss_rate::.cpu.data     0.003061                       # miss rate for overall accesses
system.cpu.dcache.overall_miss_rate::total     0.003061                       # miss rate for overall accesses
system.cpu.dcache.demand_avg_miss_latency::.cpu.data 68469.478044                       # average overall miss latency
system.cpu.dcache.demand_avg_miss_latency::total 68469.478044                       # average overall miss latency
system.cpu.dcache.overall_avg_miss_latency::.cpu.data 68449.497529                       # average overall miss latency
system.cpu.dcache.overall_avg_miss_latency::total 68449.497529                       # average overall miss latency
system.cpu.dcache.blocked_cycles::no_mshrs            0                       # number of cycles access was blocked
system.cpu.dcache.blocked_cycles::no_targets            0                       # number of cycles access was blocked
system.cpu.dcache.blocked::no_mshrs                 0                       # number of cycles access was blocked
system.cpu.dcache.blocked::no_targets               0                       # number of cycles access was blocked
system.cpu.dcache.avg_blocked_cycles::no_mshrs          nan                       # average number of cycles each access was blocked
system.cpu.dcache.avg_blocked_cycles::no_targets          nan                       # average number of cycles each access was blocked
system.cpu.dcache.writebacks::.writebacks        86444                       # number of writebacks
system.cpu.dcache.writebacks::total             86444                       # number of writebacks
system.cpu.dcache.demand_mshr_hits::.cpu.data        18916                       # number of demand (read+write) MSHR hits
system.cpu.dcache.demand_mshr_hits::total        18916                       # number of demand (read+write) MSHR hits
system.cpu.dcache.overall_mshr_hits::.cpu.data        18916                       # number of overall MSHR hits
system.cpu.dcache.overall_mshr_hits::total        18916                       # number of overall MSHR hits
system.cpu.dcache.demand_mshr_misses::.cpu.data        90710                       # number of demand (read+write) MSHR misses
system.cpu.dcache.demand_mshr_misses::total        90710                       # number of demand (read+write) MSHR misses
system.cpu.dcache.overall_mshr_misses::.cpu.data        90742                       # number of overall MSHR misses
system.cpu.dcache.overall_mshr_misses::total        90742                       # number of overall MSHR misses
system.cpu.dcache.demand_mshr_miss_latency::.cpu.data   6396187000                       # number of demand (read+write) MSHR miss cycles
system.cpu.dcache.demand_mshr_miss_latency::total   6396187000                       # number of demand (read+write) MSHR miss cycles
system.cpu.dcache.overall_mshr_miss_latency::.cpu.data   6398041500                       # number of overall MSHR miss cycles
system.cpu.dcache.overall_mshr_miss_latency::total   6398041500                       # number of overall MSHR miss cycles
system.cpu.dcache.demand_mshr_miss_rate::.cpu.data     0.002532                       # mshr miss rate for demand accesses
system.cpu.dcache.demand_mshr_miss_rate::total     0.002532                       # mshr miss rate for demand accesses
system.cpu.dcache.overall_mshr_miss_rate::.cpu.data     0.002533                       # mshr miss rate for overall accesses
system.cpu.dcache.overall_mshr_miss_rate::total     0.002533                       # mshr miss rate for overall accesses
system.cpu.dcache.demand_avg_mshr_miss_latency::.cpu.data 70512.479330                       # average overall mshr miss latency
system.cpu.dcache.demand_avg_mshr_miss_latency::total 70512.479330                       # average overall mshr miss latency
system.cpu.dcache.overall_avg_mshr_miss_latency::.cpu.data 70508.050296                       # average overall mshr miss latency
system.cpu.dcache.overall_avg_mshr_miss_latency::total 70508.050296                       # average overall mshr miss latency
system.cpu.dcache.replacements                  88695                       # number of replacements
system.cpu.dcache.ReadReq_hits::.cpu.data     21506268                       # number of ReadReq hits
system.cpu.dcache.ReadReq_hits::total        21506268                       # number of ReadReq hits
system.cpu.dcache.ReadReq_misses::.cpu.data        21444                       # number of ReadReq misses
system.cpu.dcache.ReadReq_misses::total         21444                       # number of ReadReq misses
system.cpu.dcache.ReadReq_miss_latency::.cpu.data    734360000                       # number of ReadReq miss cycles
system.cpu.dcache.ReadReq_miss_latency::total    734360000                       # number of ReadReq miss cycles
system.cpu.dcache.ReadReq_accesses::.cpu.data     21527712                       # number of ReadReq accesses(hits+misses)
system.cpu.dcache.ReadReq_accesses::total     21527712                       # number of ReadReq accesses(hits+misses)
system.cpu.dcache.ReadReq_miss_rate::.cpu.data     0.000996                       # miss rate for ReadReq accesses
system.cpu.dcache.ReadReq_miss_rate::total     0.000996                       # miss rate for ReadReq accesses
system.cpu.dcache.ReadReq_avg_miss_latency::.cpu.data 34245.476590                       # average ReadReq miss latency
system.cpu.dcache.ReadReq_avg_miss_latency::total 34245.476590                       # average ReadReq miss latency
system.cpu.dcache.ReadReq_mshr_hits::.cpu.data         2347                       # number of ReadReq MSHR hits
system.cpu.dcache.ReadReq_mshr_hits::total         2347                       # number of ReadReq MSHR hits
system.cpu.dcache.ReadReq_mshr_misses::.cpu.data        19097                       # number of ReadReq MSHR misses
system.cpu.dcache.ReadReq_mshr_misses::total        19097                       # number of ReadReq MSHR misses
system.cpu.dcache.ReadReq_mshr_miss_latency::.cpu.data    664642000                       # number of ReadReq MSHR miss cycles
system.cpu.dcache.ReadReq_mshr_miss_latency::total    664642000                       # number of ReadReq MSHR miss cycles
system.cpu.dcache.ReadReq_mshr_miss_rate::.cpu.data     0.000887                       # mshr miss rate for ReadReq accesses
system.cpu.dcache.ReadReq_mshr_miss_rate::total     0.000887                       # mshr miss rate for ReadReq accesses
system.cpu.dcache.ReadReq_avg_mshr_miss_latency::.cpu.data 34803.476986                       # average ReadReq mshr miss latency
system.cpu.dcache.ReadReq_avg_mshr_miss_latency::total 34803.476986                       # average ReadReq mshr miss latency
system.cpu.dcache.WriteReq_hits::.cpu.data     14210634                       # number of WriteReq hits
system.cpu.dcache.WriteReq_hits::total       14210634                       # number of WriteReq hits
system.cpu.dcache.WriteReq_misses::.cpu.data        88182                       # number of WriteReq misses
system.cpu.dcache.WriteReq_misses::total        88182                       # number of WriteReq misses
system.cpu.dcache.WriteReq_miss_latency::.cpu.data   6771675000                       # number of WriteReq miss cycles
system.cpu.dcache.WriteReq_miss_latency::total   6771675000                       # number of WriteReq miss cycles
system.cpu.dcache.WriteReq_accesses::.cpu.data     14298816                       # number of WriteReq accesses(hits+misses)
system.cpu.dcache.WriteReq_accesses::total     14298816                       # number of WriteReq accesses(hits+misses)
system.cpu.dcache.WriteReq_miss_rate::.cpu.data     0.006167                       # miss rate for WriteReq accesses
system.cpu.dcache.WriteReq_miss_rate::total     0.006167                       # miss rate for WriteReq accesses
system.cpu.dcache.WriteReq_avg_miss_latency::.cpu.data 76792.032388                       # average WriteReq miss latency
system.cpu.dcache.WriteReq_avg_miss_latency::total 76792.032388                       # average WriteReq miss latency
system.cpu.dcache.WriteReq_mshr_hits::.cpu.data        16569                       # number of WriteReq MSHR hits
system.cpu.dcache.WriteReq_mshr_hits::total        16569                       # number of WriteReq MSHR hits
system.cpu.dcache.WriteReq_mshr_misses::.cpu.data        71613                       # number of WriteReq MSHR misses
system.cpu.dcache.WriteReq_mshr_misses::total        71613                       # number of WriteReq MSHR misses
system.cpu.dcache.WriteReq_mshr_miss_latency::.cpu.data   5731545000                       # number of WriteReq MSHR miss cycles
system.cpu.dcache.WriteReq_mshr_miss_latency::total   5731545000                       # number of WriteReq MSHR miss cycles
system.cpu.dcache.WriteReq_mshr_miss_rate::.cpu.data     0.005008                       # mshr miss rate for WriteReq accesses
system.cpu.dcache.WriteReq_mshr_miss_rate::total     0.005008                       # mshr miss rate for WriteReq accesses
system.cpu.dcache.WriteReq_avg_mshr_miss_latency::.cpu.data 80034.979682                       # average WriteReq mshr miss latency
system.cpu.dcache.WriteReq_avg_mshr_miss_latency::total 80034.979682                       # average WriteReq mshr miss latency
system.cpu.dcache.SoftPFReq_hits::.cpu.data         3329                       # number of SoftPFReq hits
system.cpu.dcache.SoftPFReq_hits::total          3329                       # number of SoftPFReq hits
system.cpu.dcache.SoftPFReq_misses::.cpu.data           32                       # number of SoftPFReq misses
system.cpu.dcache.SoftPFReq_misses::total           32                       # number of SoftPFReq misses
system.cpu.dcache.SoftPFReq_accesses::.cpu.data         3361                       # number of SoftPFReq accesses(hits+misses)
system.cpu.dcache.SoftPFReq_accesses::total         3361                       # number of SoftPFReq accesses(hits+misses)
system.cpu.dcache.SoftPFReq_miss_rate::.cpu.data     0.009521                       # miss rate for SoftPFReq accesses
system.cpu.dcache.SoftPFReq_miss_rate::total     0.009521                       # miss rate for SoftPFReq accesses
system.cpu.dcache.SoftPFReq_mshr_misses::.cpu.data           32                       # number of SoftPFReq MSHR misses
system.cpu.dcache.SoftPFReq_mshr_misses::total           32                       # number of SoftPFReq MSHR misses
system.cpu.dcache.SoftPFReq_mshr_miss_latency::.cpu.data      1854500                       # number of SoftPFReq MSHR miss cycles
system.cpu.dcache.SoftPFReq_mshr_miss_latency::total      1854500                       # number of SoftPFReq MSHR miss cycles
system.cpu.dcache.SoftPFReq_mshr_miss_rate::.cpu.data     0.009521                       # mshr miss rate for SoftPFReq accesses
system.cpu.dcache.SoftPFReq_mshr_miss_rate::total     0.009521                       # mshr miss rate for SoftPFReq accesses
system.cpu.dcache.SoftPFReq_avg_mshr_miss_latency::.cpu.data 57953.125000                       # average SoftPFReq mshr miss latency
system.cpu.dcache.SoftPFReq_avg_mshr_miss_latency::total 57953.125000                       # average SoftPFReq mshr miss latency
system.cpu.dcache.LoadLockedReq_hits::.cpu.data        89079                       # number of LoadLockedReq hits
system.cpu.dcache.LoadLockedReq_hits::total        89079                       # number of LoadLockedReq hits
system.cpu.dcache.LoadLockedReq_misses::.cpu.data            1                       # number of LoadLockedReq misses
system.cpu.dcache.LoadLockedReq_misses::total            1                       # number of LoadLockedReq misses
system.cpu.dcache.LoadLockedReq_miss_latency::.cpu.data       101500                       # number of LoadLockedReq miss cycles
system.cpu.dcache.LoadLockedReq_miss_latency::total       101500                       # number of LoadLockedReq miss cycles
system.cpu.dcache.LoadLockedReq_accesses::.cpu.data        89080                       # number of LoadLockedReq accesses(hits+misses)
system.cpu.dcache.LoadLockedReq_accesses::total        89080                       # number of LoadLockedReq accesses(hits+misses)
system.cpu.dcache.LoadLockedReq_miss_rate::.cpu.data     0.000011                       # miss rate for LoadLockedReq accesses
system.cpu.dcache.LoadLockedReq_miss_rate::total     0.000011                       # miss rate for LoadLockedReq accesses
system.cpu.dcache.LoadLockedReq_avg_miss_latency::.cpu.data       101500                       # average LoadLockedReq miss latency
system.cpu.dcache.LoadLockedReq_avg_miss_latency::total       101500                       # average LoadLockedReq miss latency
system.cpu.dcache.LoadLockedReq_mshr_misses::.cpu.data            1                       # number of LoadLockedReq MSHR misses
system.cpu.dcache.LoadLockedReq_mshr_misses::total            1                       # number of LoadLockedReq MSHR misses
system.cpu.dcache.LoadLockedReq_mshr_miss_latency::.cpu.data       100500                       # number of LoadLockedReq MSHR miss cycles
system.cpu.dcache.LoadLockedReq_mshr_miss_latency::total       100500                       # number of LoadLockedReq MSHR miss cycles
system.cpu.dcache.LoadLockedReq_mshr_miss_rate::.cpu.data     0.000011                       # mshr miss rate for LoadLockedReq accesses
system.cpu.dcache.LoadLockedReq_mshr_miss_rate::total     0.000011                       # mshr miss rate for LoadLockedReq accesses
system.cpu.dcache.LoadLockedReq_avg_mshr_miss_latency::.cpu.data       100500                       # average LoadLockedReq mshr miss latency
system.cpu.dcache.LoadLockedReq_avg_mshr_miss_latency::total       100500                       # average LoadLockedReq mshr miss latency
system.cpu.dcache.StoreCondReq_hits::.cpu.data        89080                       # number of StoreCondReq hits
system.cpu.dcache.StoreCondReq_hits::total        89080                       # number of StoreCondReq hits
system.cpu.dcache.StoreCondReq_accesses::.cpu.data        89080                       # number of StoreCondReq accesses(hits+misses)
system.cpu.dcache.StoreCondReq_accesses::total        89080                       # number of StoreCondReq accesses(hits+misses)
system.cpu.dcache.power_state.pwrStateResidencyTicks::UNDEFINED  58315466000                       # Cumulative time (in ticks) in various power states
system.cpu.dcache.tags.tagsinuse          2039.881815                       # Cycle average of tags in use
system.cpu.dcache.tags.total_refs            35989133                       # Total number of references to valid blocks.
system.cpu.dcache.tags.sampled_refs             90743                       # Sample count of references to valid blocks.
system.cpu.dcache.tags.avg_refs            396.605060                       # Average number of references to valid blocks.
system.cpu.dcache.tags.warmup_cycle            176500                       # Cycle when the warmup percentage was hit.
system.cpu.dcache.tags.occ_blocks::.cpu.data  2039.881815                       # Average occupied blocks per requestor
system.cpu.dcache.tags.occ_percent::.cpu.data     0.996036                       # Average percentage of cache occupancy
system.cpu.dcache.tags.occ_percent::total     0.996036                       # Average percentage of cache occupancy
system.cpu.dcache.tags.occ_task_id_blocks::1024         2048                       # Occupied blocks per task id
system.cpu.dcache.tags.age_task_id_blocks_1024::0            7                       # Occupied blocks per task id
system.cpu.dcache.tags.age_task_id_blocks_1024::1           71                       # Occupied blocks per task id
system.cpu.dcache.tags.age_task_id_blocks_1024::2          934                       # Occupied blocks per task id
system.cpu.dcache.tags.age_task_id_blocks_1024::3          815                       # Occupied blocks per task id
system.cpu.dcache.tags.age_task_id_blocks_1024::4          221                       # Occupied blocks per task id
system.cpu.dcache.tags.occ_task_id_percent::1024            1                       # Percentage of cache occupancy per task id
system.cpu.dcache.tags.tag_accesses         144122939                       # Number of tag accesses
system.cpu.dcache.tags.data_accesses        144122939                       # Number of data accesses
system.cpu.dcache.tags.power_state.pwrStateResidencyTicks::UNDEFINED  58315466000                       # Cumulative time (in ticks) in various power states
system.cpu.dtb.instHits                             0                       # ITB inst hits
system.cpu.dtb.instMisses                           0                       # ITB inst misses
system.cpu.dtb.readHits                             0                       # DTB read hits
system.cpu.dtb.readMisses                           0                       # DTB read misses
system.cpu.dtb.writeHits                            0                       # DTB write hits
system.cpu.dtb.writeMisses                          0                       # DTB write misses
system.cpu.dtb.inserts                              0                       # Number of times an entry is inserted into the TLB
system.cpu.dtb.flushTlb                             0                       # Number of times complete TLB was flushed
system.cpu.dtb.flushTlbMva                          0                       # Number of times TLB was flushed by MVA
system.cpu.dtb.flushTlbMvaAsid                      0                       # Number of times TLB was flushed by MVA & ASID
system.cpu.dtb.flushTlbAsid                         0                       # Number of times TLB was flushed by ASID
system.cpu.dtb.flushedEntries                       0                       # Number of entries that have been flushed from TLB
system.cpu.dtb.alignFaults                          0                       # Number of TLB faults due to alignment restrictions
system.cpu.dtb.prefetchFaults                       0                       # Number of TLB faults due to prefetch
system.cpu.dtb.domainFaults                         0                       # Number of TLB faults due to domain restrictions
system.cpu.dtb.permsFaults                          0                       # Number of TLB faults due to permissions restrictions
system.cpu.dtb.readAccesses                         0                       # DTB read accesses
system.cpu.dtb.writeAccesses                        0                       # DTB write accesses
system.cpu.dtb.instAccesses                         0                       # ITB inst accesses
system.cpu.dtb.hits                                 0                       # Total TLB (inst and data) hits
system.cpu.dtb.misses                               0                       # Total TLB (inst and data) misses
system.cpu.dtb.accesses                             0                       # Total TLB (inst and data) accesses
system.cpu.dtb.stage2_mmu.stage2_tlb.instHits            0                       # ITB inst hits
system.cpu.dtb.stage2_mmu.stage2_tlb.instMisses            0                       # ITB inst misses
system.cpu.dtb.stage2_mmu.stage2_tlb.readHits            0                       # DTB read hits
system.cpu.dtb.stage2_mmu.stage2_tlb.readMisses            0                       # DTB read misses
system.cpu.dtb.stage2_mmu.stage2_tlb.writeHits            0                       # DTB write hits
system.cpu.dtb.stage2_mmu.stage2_tlb.writeMisses            0                       # DTB write misses
system.cpu.dtb.stage2_mmu.stage2_tlb.inserts            0                       # Number of times an entry is inserted into the TLB
system.cpu.dtb.stage2_mmu.stage2_tlb.flushTlb            0                       # Number of times complete TLB was flushed
system.cpu.dtb.stage2_mmu.stage2_tlb.flushTlbMva            0                       # Number of times TLB was flushed by MVA
system.cpu.dtb.stage2_mmu.stage2_tlb.flushTlbMvaAsid            0                       # Number of times TLB was flushed by MVA & ASID
system.cpu.dtb.stage2_mmu.stage2_tlb.flushTlbAsid            0                       # Number of times TLB was flushed by ASID
system.cpu.dtb.stage2_mmu.stage2_tlb.flushedEntries            0                       # Number of entries that have been flushed from TLB
system.cpu.dtb.stage2_mmu.stage2_tlb.alignFaults            0                       # Number of TLB faults due to alignment restrictions
system.cpu.dtb.stage2_mmu.stage2_tlb.prefetchFaults            0                       # Number of TLB faults due to prefetch
system.cpu.dtb.stage2_mmu.stage2_tlb.domainFaults            0                       # Number of TLB faults due to domain restrictions
system.cpu.dtb.stage2_mmu.stage2_tlb.permsFaults            0                       # Number of TLB faults due to permissions restrictions
system.cpu.dtb.stage2_mmu.stage2_tlb.readAccesses            0                       # DTB read accesses
system.cpu.dtb.stage2_mmu.stage2_tlb.writeAccesses            0                       # DTB write accesses
system.cpu.dtb.stage2_mmu.stage2_tlb.instAccesses            0                       # ITB inst accesses
system.cpu.dtb.stage2_mmu.stage2_tlb.hits            0                       # Total TLB (inst and data) hits
system.cpu.dtb.stage2_mmu.stage2_tlb.misses            0                       # Total TLB (inst and data) misses
system.cpu.dtb.stage2_mmu.stage2_tlb.accesses            0                       # Total TLB (inst and data) accesses
system.cpu.dtb.stage2_mmu.stage2_tlb.walker.walks            0                       # Table walker walks requested
system.cpu.dtb.stage2_mmu.stage2_tlb.walker.requestOrigin_Requested::Data            0                       # Table walker requests started/completed, data/inst
system.cpu.dtb.stage2_mmu.stage2_tlb.walker.requestOrigin_Requested::Inst            0                       # Table walker requests started/completed, data/inst
system.cpu.dtb.stage2_mmu.stage2_tlb.walker.requestOrigin_Requested::total            0                       # Table walker requests started/completed, data/inst
system.cpu.dtb.stage2_mmu.stage2_tlb.walker.requestOrigin_Completed::Data            0                       # Table walker requests started/completed, data/inst
system.cpu.dtb.stage2_mmu.stage2_tlb.walker.requestOrigin_Completed::Inst            0                       # Table walker requests started/completed, data/inst
system.cpu.dtb.stage2_mmu.stage2_tlb.walker.requestOrigin_Completed::total            0                       # Table walker requests started/completed, data/inst
system.cpu.dtb.stage2_mmu.stage2_tlb.walker.requestOrigin::total            0                       # Table walker requests started/completed, data/inst
system.cpu.dtb.stage2_mmu.stage2_tlb.walker.power_state.pwrStateResidencyTicks::UNDEFINED  58315466000                       # Cumulative time (in ticks) in various power states
system.cpu.dtb.walker.walks                         0                       # Table walker walks requested
system.cpu.dtb.walker.requestOrigin_Requested::Data            0                       # Table walker requests started/completed, data/inst
system.cpu.dtb.walker.requestOrigin_Requested::Inst            0                       # Table walker requests started/completed, data/inst
system.cpu.dtb.walker.requestOrigin_Requested::total            0                       # Table walker requests started/completed, data/inst
system.cpu.dtb.walker.requestOrigin_Completed::Data            0                       # Table walker requests started/completed, data/inst
system.cpu.dtb.walker.requestOrigin_Completed::Inst            0                       # Table walker requests started/completed, data/inst
system.cpu.dtb.walker.requestOrigin_Completed::total            0                       # Table walker requests started/completed, data/inst
system.cpu.dtb.walker.requestOrigin::total            0                       # Table walker requests started/completed, data/inst
system.cpu.dtb.walker.power_state.pwrStateResidencyTicks::UNDEFINED  58315466000                       # Cumulative time (in ticks) in various power states
system.cpu.fetch2.intInstructions            49234753                       # Number of integer instructions successfully decoded
system.cpu.fetch2.fpInstructions                    0                       # Number of floating point instructions successfully decoded
system.cpu.fetch2.vecInstructions                   0                       # Number of SIMD instructions successfully decoded
system.cpu.fetch2.loadInstructions           17106107                       # Number of memory load instructions successfully decoded
system.cpu.fetch2.storeInstructions           9763836                       # Number of memory store instructions successfully decoded
system.cpu.fetch2.amoInstructions                   0                       # Number of memory atomic instructions successfully decoded
system.cpu.icache.demand_hits::.cpu.inst     30545357                       # number of demand (read+write) hits
system.cpu.icache.demand_hits::total         30545357                       # number of demand (read+write) hits
system.cpu.icache.overall_hits::.cpu.inst     30545357                       # number of overall hits
system.cpu.icache.overall_hits::total        30545357                       # number of overall hits
system.cpu.icache.demand_misses::.cpu.inst          950                       # number of demand (read+write) misses
system.cpu.icache.demand_misses::total            950                       # number of demand (read+write) misses
system.cpu.icache.overall_misses::.cpu.inst          950                       # number of overall misses
system.cpu.icache.overall_misses::total           950                       # number of overall misses
system.cpu.icache.demand_miss_latency::.cpu.inst     64515500                       # number of demand (read+write) miss cycles
system.cpu.icache.demand_miss_latency::total     64515500                       # number of demand (read+write) miss cycles
system.cpu.icache.overall_miss_latency::.cpu.inst     64515500                       # number of overall miss cycles
system.cpu.icache.overall_miss_latency::total     64515500                       # number of overall miss cycles
system.cpu.icache.demand_accesses::.cpu.inst     30546307                       # number of demand (read+write) accesses
system.cpu.icache.demand_accesses::total     30546307                       # number of demand (read+write) accesses
system.cpu.icache.overall_accesses::.cpu.inst     30546307                       # number of overall (read+write) accesses
system.cpu.icache.overall_accesses::total     30546307                       # number of overall (read+write) accesses
system.cpu.icache.demand_miss_rate::.cpu.inst     0.000031                       # miss rate for demand accesses
system.cpu.icache.demand_miss_rate::total     0.000031                       # miss rate for demand accesses
system.cpu.icache.overall_miss_rate::.cpu.inst     0.000031                       # miss rate for overall accesses
system.cpu.icache.overall_miss_rate::total     0.000031                       # miss rate for overall accesses
system.cpu.icache.demand_avg_miss_latency::.cpu.inst 67911.052632                       # average overall miss latency
system.cpu.icache.demand_avg_miss_latency::total 67911.052632                       # average overall miss latency
system.cpu.icache.overall_avg_miss_latency::.cpu.inst 67911.052632                       # average overall miss latency
system.cpu.icache.overall_avg_miss_latency::total 67911.052632                       # average overall miss latency
system.cpu.icache.blocked_cycles::no_mshrs            0                       # number of cycles access was blocked
system.cpu.icache.blocked_cycles::no_targets            0                       # number of cycles access was blocked
system.cpu.icache.blocked::no_mshrs                 0                       # number of cycles access was blocked
system.cpu.icache.blocked::no_targets               0                       # number of cycles access was blocked
system.cpu.icache.avg_blocked_cycles::no_mshrs          nan                       # average number of cycles each access was blocked
system.cpu.icache.avg_blocked_cycles::no_targets          nan                       # average number of cycles each access was blocked
system.cpu.icache.writebacks::.writebacks          216                       # number of writebacks
system.cpu.icache.writebacks::total               216                       # number of writebacks
system.cpu.icache.demand_mshr_misses::.cpu.inst          950                       # number of demand (read+write) MSHR misses
system.cpu.icache.demand_mshr_misses::total          950                       # number of demand (read+write) MSHR misses
system.cpu.icache.overall_mshr_misses::.cpu.inst          950                       # number of overall MSHR misses
system.cpu.icache.overall_mshr_misses::total          950                       # number of overall MSHR misses
system.cpu.icache.demand_mshr_miss_latency::.cpu.inst     63565500                       # number of demand (read+write) MSHR miss cycles
system.cpu.icache.demand_mshr_miss_latency::total     63565500                       # number of demand (read+write) MSHR miss cycles
system.cpu.icache.overall_mshr_miss_latency::.cpu.inst     63565500                       # number of overall MSHR miss cycles
system.cpu.icache.overall_mshr_miss_latency::total     63565500                       # number of overall MSHR miss cycles
system.cpu.icache.demand_mshr_miss_rate::.cpu.inst     0.000031                       # mshr miss rate for demand accesses
system.cpu.icache.demand_mshr_miss_rate::total     0.000031                       # mshr miss rate for demand accesses
system.cpu.icache.overall_mshr_miss_rate::.cpu.inst     0.000031                       # mshr miss rate for overall accesses
system.cpu.icache.overall_mshr_miss_rate::total     0.000031                       # mshr miss rate for overall accesses
system.cpu.icache.demand_avg_mshr_miss_latency::.cpu.inst 66911.052632                       # average overall mshr miss latency
system.cpu.icache.demand_avg_mshr_miss_latency::total 66911.052632                       # average overall mshr miss latency
system.cpu.icache.overall_avg_mshr_miss_latency::.cpu.inst 66911.052632                       # average overall mshr miss latency
system.cpu.icache.overall_avg_mshr_miss_latency::total 66911.052632                       # average overall mshr miss latency
system.cpu.icache.replacements                    216                       # number of replacements
system.cpu.icache.ReadReq_hits::.cpu.inst     30545357                       # number of ReadReq hits
system.cpu.icache.ReadReq_hits::total        30545357                       # number of ReadReq hits
system.cpu.icache.ReadReq_misses::.cpu.inst          950                       # number of ReadReq misses
system.cpu.icache.ReadReq_misses::total           950                       # number of ReadReq misses
system.cpu.icache.ReadReq_miss_latency::.cpu.inst     64515500                       # number of ReadReq miss cycles
system.cpu.icache.ReadReq_miss_latency::total     64515500                       # number of ReadReq miss cycles
system.cpu.icache.ReadReq_accesses::.cpu.inst     30546307                       # number of ReadReq accesses(hits+misses)
system.cpu.icache.ReadReq_accesses::total     30546307                       # number of ReadReq accesses(hits+misses)
system.cpu.icache.ReadReq_miss_rate::.cpu.inst     0.000031                       # miss rate for ReadReq accesses
system.cpu.icache.ReadReq_miss_rate::total     0.000031                       # miss rate for ReadReq accesses
system.cpu.icache.ReadReq_avg_miss_latency::.cpu.inst 67911.052632                       # average ReadReq miss latency
system.cpu.icache.ReadReq_avg_miss_latency::total 67911.052632                       # average ReadReq miss latency
system.cpu.icache.ReadReq_mshr_misses::.cpu.inst          950                       # number of ReadReq MSHR misses
system.cpu.icache.ReadReq_mshr_misses::total          950                       # number of ReadReq MSHR misses
system.cpu.icache.ReadReq_mshr_miss_latency::.cpu.inst     63565500                       # number of ReadReq MSHR miss cycles
system.cpu.icache.ReadReq_mshr_miss_latency::total     63565500                       # number of ReadReq MSHR miss cycles
system.cpu.icache.ReadReq_mshr_miss_rate::.cpu.inst     0.000031                       # mshr miss rate for ReadReq accesses
system.cpu.icache.ReadReq_mshr_miss_rate::total     0.000031                       # mshr miss rate for ReadReq accesses
system.cpu.icache.ReadReq_avg_mshr_miss_latency::.cpu.inst 66911.052632                       # average ReadReq mshr miss latency
system.cpu.icache.ReadReq_avg_mshr_miss_latency::total 66911.052632                       # average ReadReq mshr miss latency
system.cpu.icache.power_state.pwrStateResidencyTicks::UNDEFINED  58315466000                       # Cumulative time (in ticks) in various power states
system.cpu.icache.tags.tagsinuse           731.047743                       # Cycle average of tags in use
system.cpu.icache.tags.total_refs            30546307                       # Total number of references to valid blocks.
system.cpu.icache.tags.sampled_refs               950                       # Sample count of references to valid blocks.
system.cpu.icache.tags.avg_refs          32154.007368                       # Average number of references to valid blocks.
system.cpu.icache.tags.warmup_cycle             87500                       # Cycle when the warmup percentage was hit.
system.cpu.icache.tags.occ_blocks::.cpu.inst   731.047743                       # Average occupied blocks per requestor
system.cpu.icache.tags.occ_percent::.cpu.inst     0.356957                       # Average percentage of cache occupancy
system.cpu.icache.tags.occ_percent::total     0.356957                       # Average percentage of cache occupancy
system.cpu.icache.tags.occ_task_id_blocks::1024          734                       # Occupied blocks per task id
system.cpu.icache.tags.age_task_id_blocks_1024::4          734                       # Occupied blocks per task id
system.cpu.icache.tags.occ_task_id_percent::1024     0.358398                       # Percentage of cache occupancy per task id
system.cpu.icache.tags.tag_accesses          30547257                       # Number of tag accesses
system.cpu.icache.tags.data_accesses         30547257                       # Number of data accesses
system.cpu.icache.tags.power_state.pwrStateResidencyTicks::UNDEFINED  58315466000                       # Cumulative time (in ticks) in various power states
system.cpu.itb.instHits                             0                       # ITB inst hits
system.cpu.itb.instMisses                           0                       # ITB inst misses
system.cpu.itb.readHits                             0                       # DTB read hits
system.cpu.itb.readMisses                           0                       # DTB read misses
system.cpu.itb.writeHits                            0                       # DTB write hits
system.cpu.itb.writeMisses                          0                       # DTB write misses
system.cpu.itb.inserts                              0                       # Number of times an entry is inserted into the TLB
system.cpu.itb.flushTlb                             0                       # Number of times complete TLB was flushed
system.cpu.itb.flushTlbMva                          0                       # Number of times TLB was flushed by MVA
system.cpu.itb.flushTlbMvaAsid                      0                       # Number of times TLB was flushed by MVA & ASID
system.cpu.itb.flushTlbAsid                         0                       # Number of times TLB was flushed by ASID
system.cpu.itb.flushedEntries                       0                       # Number of entries that have been flushed from TLB
system.cpu.itb.alignFaults                          0                       # Number of TLB faults due to alignment restrictions
system.cpu.itb.prefetchFaults                       0                       # Number of TLB faults due to prefetch
system.cpu.itb.domainFaults                         0                       # Number of TLB faults due to domain restrictions
system.cpu.itb.permsFaults                          0                       # Number of TLB faults due to permissions restrictions
system.cpu.itb.readAccesses                         0                       # DTB read accesses
system.cpu.itb.writeAccesses                        0                       # DTB write accesses
system.cpu.itb.instAccesses                         0                       # ITB inst accesses
system.cpu.itb.hits                                 0                       # Total TLB (inst and data) hits
system.cpu.itb.misses                               0                       # Total TLB (inst and data) misses
system.cpu.itb.accesses                             0                       # Total TLB (inst and data) accesses
system.cpu.itb.stage2_mmu.stage2_tlb.instHits            0                       # ITB inst hits
system.cpu.itb.stage2_mmu.stage2_tlb.instMisses            0                       # ITB inst misses
system.cpu.itb.stage2_mmu.stage2_tlb.readHits            0                       # DTB read hits
system.cpu.itb.stage2_mmu.stage2_tlb.readMisses            0                       # DTB read misses
system.cpu.itb.stage2_mmu.stage2_tlb.writeHits            0                       # DTB write hits
system.cpu.itb.stage2_mmu.stage2_tlb.writeMisses            0                       # DTB write misses
system.cpu.itb.stage2_mmu.stage2_tlb.inserts            0                       # Number of times an entry is inserted into the TLB
system.cpu.itb.stage2_mmu.stage2_tlb.flushTlb            0                       # Number of times complete TLB was flushed
system.cpu.itb.stage2_mmu.stage2_tlb.flushTlbMva            0                       # Number of times TLB was flushed by MVA
system.cpu.itb.stage2_mmu.stage2_tlb.flushTlbMvaAsid            0                       # Number of times TLB was flushed by MVA & ASID
system.cpu.itb.stage2_mmu.stage2_tlb.flushTlbAsid            0                       # Number of times TLB was flushed by ASID
system.cpu.itb.stage2_mmu.stage2_tlb.flushedEntries            0                       # Number of entries that have been flushed from TLB
system.cpu.itb.stage2_mmu.stage2_tlb.alignFaults            0                       # Number of TLB faults due to alignment restrictions
system.cpu.itb.stage2_mmu.stage2_tlb.prefetchFaults            0                       # Number of TLB faults due to prefetch
system.cpu.itb.stage2_mmu.stage2_tlb.domainFaults            0                       # Number of TLB faults due to domain restrictions
system.cpu.itb.stage2_mmu.stage2_tlb.permsFaults            0                       # Number of TLB faults due to permissions restrictions
system.cpu.itb.stage2_mmu.stage2_tlb.readAccesses            0                       # DTB read accesses
system.cpu.itb.stage2_mmu.stage2_tlb.writeAccesses            0                       # DTB write accesses
system.cpu.itb.stage2_mmu.stage2_tlb.instAccesses            0                       # ITB inst accesses
system.cpu.itb.stage2_mmu.stage2_tlb.hits            0                       # Total TLB (inst and data) hits
system.cpu.itb.stage2_mmu.stage2_tlb.misses            0                       # Total TLB (inst and data) misses
system.cpu.itb.stage2_mmu.stage2_tlb.accesses            0                       # Total TLB (inst and data) accesses
system.cpu.itb.stage2_mmu.stage2_tlb.walker.walks            0                       # Table walker walks requested
system.cpu.itb.stage2_mmu.stage2_tlb.walker.requestOrigin_Requested::Data            0                       # Table walker requests started/completed, data/inst
system.cpu.itb.stage2_mmu.stage2_tlb.walker.requestOrigin_Requested::Inst            0                       # Table walker requests started/completed, data/inst
system.cpu.itb.stage2_mmu.stage2_tlb.walker.requestOrigin_Requested::total            0                       # Table walker requests started/completed, data/inst
system.cpu.itb.stage2_mmu.stage2_tlb.walker.requestOrigin_Completed::Data            0                       # Table walker requests started/completed, data/inst
system.cpu.itb.stage2_mmu.stage2_tlb.walker.requestOrigin_Completed::Inst            0                       # Table walker requests started/completed, data/inst
system.cpu.itb.stage2_mmu.stage2_tlb.walker.requestOrigin_Completed::total            0                       # Table walker requests started/completed, data/inst
system.cpu.itb.stage2_mmu.stage2_tlb.walker.requestOrigin::total            0                       # Table walker requests started/completed, data/inst
system.cpu.itb.stage2_mmu.stage2_tlb.walker.power_state.pwrStateResidencyTicks::UNDEFINED  58315466000                       # Cumulative time (in ticks) in various power states
system.cpu.itb.walker.walks                         0                       # Table walker walks requested
system.cpu.itb.walker.requestOrigin_Requested::Data            0                       # Table walker requests started/completed, data/inst
system.cpu.itb.walker.requestOrigin_Requested::Inst            0                       # Table walker requests started/completed, data/inst
system.cpu.itb.walker.requestOrigin_Requested::total            0                       # Table walker requests started/completed, data/inst
system.cpu.itb.walker.requestOrigin_Completed::Data            0                       # Table walker requests started/completed, data/inst
system.cpu.itb.walker.requestOrigin_Completed::Inst            0                       # Table walker requests started/completed, data/inst
system.cpu.itb.walker.requestOrigin_Completed::total            0                       # Table walker requests started/completed, data/inst
system.cpu.itb.walker.requestOrigin::total            0                       # Table walker requests started/completed, data/inst
system.cpu.itb.walker.power_state.pwrStateResidencyTicks::UNDEFINED  58315466000                       # Cumulative time (in ticks) in various power states
system.cpu.power_state.pwrStateResidencyTicks::ON  58315466000                       # Cumulative time (in ticks) in various power states
system.cpu.thread0.numInsts                 100000001                       # Number of Instructions committed
system.cpu.thread0.numOps                   109431277                       # Number of Ops committed
system.cpu.thread0.numMemRefs                       0                       # Number of Memory References
system.cpu_clk_domain.clock                       500                       # Clock period in ticks
system.cpu_voltage_domain.voltage                   1                       # Voltage in Volts
system.l2.demand_hits::.cpu.inst                  145                       # number of demand (read+write) hits
system.l2.demand_hits::.cpu.data                12736                       # number of demand (read+write) hits
system.l2.demand_hits::total                    12881                       # number of demand (read+write) hits
system.l2.overall_hits::.cpu.inst                 145                       # number of overall hits
system.l2.overall_hits::.cpu.data               12736                       # number of overall hits
system.l2.overall_hits::total                   12881                       # number of overall hits
system.l2.demand_misses::.cpu.inst                805                       # number of demand (read+write) misses
system.l2.demand_misses::.cpu.data              78007                       # number of demand (read+write) misses
system.l2.demand_misses::total                  78812                       # number of demand (read+write) misses
system.l2.overall_misses::.cpu.inst               805                       # number of overall misses
system.l2.overall_misses::.cpu.data             78007                       # number of overall misses
system.l2.overall_misses::total                 78812                       # number of overall misses
system.l2.demand_miss_latency::.cpu.inst     60609500                       # number of demand (read+write) miss cycles
system.l2.demand_miss_latency::.cpu.data   6128279500                       # number of demand (read+write) miss cycles
system.l2.demand_miss_latency::total       6188889000                       # number of demand (read+write) miss cycles
system.l2.overall_miss_latency::.cpu.inst     60609500                       # number of overall miss cycles
system.l2.overall_miss_latency::.cpu.data   6128279500                       # number of overall miss cycles
system.l2.overall_miss_latency::total      6188889000                       # number of overall miss cycles
system.l2.demand_accesses::.cpu.inst              950                       # number of demand (read+write) accesses
system.l2.demand_accesses::.cpu.data            90743                       # number of demand (read+write) accesses
system.l2.demand_accesses::total                91693                       # number of demand (read+write) accesses
system.l2.overall_accesses::.cpu.inst             950                       # number of overall (read+write) accesses
system.l2.overall_accesses::.cpu.data           90743                       # number of overall (read+write) accesses
system.l2.overall_accesses::total               91693                       # number of overall (read+write) accesses
system.l2.demand_miss_rate::.cpu.inst        0.847368                       # miss rate for demand accesses
system.l2.demand_miss_rate::.cpu.data        0.859648                       # miss rate for demand accesses
system.l2.demand_miss_rate::total            0.859520                       # miss rate for demand accesses
system.l2.overall_miss_rate::.cpu.inst       0.847368                       # miss rate for overall accesses
system.l2.overall_miss_rate::.cpu.data       0.859648                       # miss rate for overall accesses
system.l2.overall_miss_rate::total           0.859520                       # miss rate for overall accesses
system.l2.demand_avg_miss_latency::.cpu.inst 75291.304348                       # average overall miss latency
system.l2.demand_avg_miss_latency::.cpu.data 78560.635584                       # average overall miss latency
system.l2.demand_avg_miss_latency::total 78527.242044                       # average overall miss latency
system.l2.overall_avg_miss_latency::.cpu.inst 75291.304348                       # average overall miss latency
system.l2.overall_avg_miss_latency::.cpu.data 78560.635584                       # average overall miss latency
system.l2.overall_avg_miss_latency::total 78527.242044                       # average overall miss latency
system.l2.blocked_cycles::no_mshrs                  0                       # number of cycles access was blocked
system.l2.blocked_cycles::no_targets                0                       # number of cycles access was blocked
system.l2.blocked::no_mshrs                         0                       # number of cycles access was blocked
system.l2.blocked::no_targets                       0                       # number of cycles access was blocked
system.l2.avg_blocked_cycles::no_mshrs            nan                       # average number of cycles each access was blocked
system.l2.avg_blocked_cycles::no_targets          nan                       # average number of cycles each access was blocked
system.l2.demand_mshr_hits::.cpu.data               4                       # number of demand (read+write) MSHR hits
system.l2.demand_mshr_hits::total                   4                       # number of demand (read+write) MSHR hits
system.l2.overall_mshr_hits::.cpu.data              4                       # number of overall MSHR hits
system.l2.overall_mshr_hits::total                  4                       # number of overall MSHR hits
system.l2.demand_mshr_misses::.cpu.inst           805                       # number of demand (read+write) MSHR misses
system.l2.demand_mshr_misses::.cpu.data         78003                       # number of demand (read+write) MSHR misses
system.l2.demand_mshr_misses::total             78808                       # number of demand (read+write) MSHR misses
system.l2.overall_mshr_misses::.cpu.inst          805                       # number of overall MSHR misses
system.l2.overall_mshr_misses::.cpu.data        78003                       # number of overall MSHR misses
system.l2.overall_mshr_misses::total            78808                       # number of overall MSHR misses
system.l2.demand_mshr_miss_latency::.cpu.inst     52559500                       # number of demand (read+write) MSHR miss cycles
system.l2.demand_mshr_miss_latency::.cpu.data   5347982500                       # number of demand (read+write) MSHR miss cycles
system.l2.demand_mshr_miss_latency::total   5400542000                       # number of demand (read+write) MSHR miss cycles
system.l2.overall_mshr_miss_latency::.cpu.inst     52559500                       # number of overall MSHR miss cycles
system.l2.overall_mshr_miss_latency::.cpu.data   5347982500                       # number of overall MSHR miss cycles
system.l2.overall_mshr_miss_latency::total   5400542000                       # number of overall MSHR miss cycles
system.l2.demand_mshr_miss_rate::.cpu.inst     0.847368                       # mshr miss rate for demand accesses
system.l2.demand_mshr_miss_rate::.cpu.data     0.859603                       # mshr miss rate for demand accesses
system.l2.demand_mshr_miss_rate::total       0.859477                       # mshr miss rate for demand accesses
system.l2.overall_mshr_miss_rate::.cpu.inst     0.847368                       # mshr miss rate for overall accesses
system.l2.overall_mshr_miss_rate::.cpu.data     0.859603                       # mshr miss rate for overall accesses
system.l2.overall_mshr_miss_rate::total      0.859477                       # mshr miss rate for overall accesses
system.l2.demand_avg_mshr_miss_latency::.cpu.inst 65291.304348                       # average overall mshr miss latency
system.l2.demand_avg_mshr_miss_latency::.cpu.data 68561.241234                       # average overall mshr miss latency
system.l2.demand_avg_mshr_miss_latency::total 68527.839813                       # average overall mshr miss latency
system.l2.overall_avg_mshr_miss_latency::.cpu.inst 65291.304348                       # average overall mshr miss latency
system.l2.overall_avg_mshr_miss_latency::.cpu.data 68561.241234                       # average overall mshr miss latency
system.l2.overall_avg_mshr_miss_latency::total 68527.839813                       # average overall mshr miss latency
system.l2.replacements                              0                       # number of replacements
system.l2.WritebackDirty_hits::.writebacks        86444                       # number of WritebackDirty hits
system.l2.WritebackDirty_hits::total            86444                       # number of WritebackDirty hits
system.l2.WritebackDirty_accesses::.writebacks        86444                       # number of WritebackDirty accesses(hits+misses)
system.l2.WritebackDirty_accesses::total        86444                       # number of WritebackDirty accesses(hits+misses)
system.l2.WritebackClean_hits::.writebacks          212                       # number of WritebackClean hits
system.l2.WritebackClean_hits::total              212                       # number of WritebackClean hits
system.l2.WritebackClean_accesses::.writebacks          212                       # number of WritebackClean accesses(hits+misses)
system.l2.WritebackClean_accesses::total          212                       # number of WritebackClean accesses(hits+misses)
system.l2.ReadExReq_misses::.cpu.data           71613                       # number of ReadExReq misses
system.l2.ReadExReq_misses::total               71613                       # number of ReadExReq misses
system.l2.ReadExReq_miss_latency::.cpu.data   5624123000                       # number of ReadExReq miss cycles
system.l2.ReadExReq_miss_latency::total    5624123000                       # number of ReadExReq miss cycles
system.l2.ReadExReq_accesses::.cpu.data         71613                       # number of ReadExReq accesses(hits+misses)
system.l2.ReadExReq_accesses::total             71613                       # number of ReadExReq accesses(hits+misses)
system.l2.ReadExReq_miss_rate::.cpu.data            1                       # miss rate for ReadExReq accesses
system.l2.ReadExReq_miss_rate::total                1                       # miss rate for ReadExReq accesses
system.l2.ReadExReq_avg_miss_latency::.cpu.data 78534.944773                       # average ReadExReq miss latency
system.l2.ReadExReq_avg_miss_latency::total 78534.944773                       # average ReadExReq miss latency
system.l2.ReadExReq_mshr_misses::.cpu.data        71613                       # number of ReadExReq MSHR misses
system.l2.ReadExReq_mshr_misses::total          71613                       # number of ReadExReq MSHR misses
system.l2.ReadExReq_mshr_miss_latency::.cpu.data   4907993000                       # number of ReadExReq MSHR miss cycles
system.l2.ReadExReq_mshr_miss_latency::total   4907993000                       # number of ReadExReq MSHR miss cycles
system.l2.ReadExReq_mshr_miss_rate::.cpu.data            1                       # mshr miss rate for ReadExReq accesses
system.l2.ReadExReq_mshr_miss_rate::total            1                       # mshr miss rate for ReadExReq accesses
system.l2.ReadExReq_avg_mshr_miss_latency::.cpu.data 68534.944773                       # average ReadExReq mshr miss latency
system.l2.ReadExReq_avg_mshr_miss_latency::total 68534.944773                       # average ReadExReq mshr miss latency
system.l2.ReadCleanReq_hits::.cpu.inst            145                       # number of ReadCleanReq hits
system.l2.ReadCleanReq_hits::total                145                       # number of ReadCleanReq hits
system.l2.ReadCleanReq_misses::.cpu.inst          805                       # number of ReadCleanReq misses
system.l2.ReadCleanReq_misses::total              805                       # number of ReadCleanReq misses
system.l2.ReadCleanReq_miss_latency::.cpu.inst     60609500                       # number of ReadCleanReq miss cycles
system.l2.ReadCleanReq_miss_latency::total     60609500                       # number of ReadCleanReq miss cycles
system.l2.ReadCleanReq_accesses::.cpu.inst          950                       # number of ReadCleanReq accesses(hits+misses)
system.l2.ReadCleanReq_accesses::total            950                       # number of ReadCleanReq accesses(hits+misses)
system.l2.ReadCleanReq_miss_rate::.cpu.inst     0.847368                       # miss rate for ReadCleanReq accesses
system.l2.ReadCleanReq_miss_rate::total      0.847368                       # miss rate for ReadCleanReq accesses
system.l2.ReadCleanReq_avg_miss_latency::.cpu.inst 75291.304348                       # average ReadCleanReq miss latency
system.l2.ReadCleanReq_avg_miss_latency::total 75291.304348                       # average ReadCleanReq miss latency
system.l2.ReadCleanReq_mshr_misses::.cpu.inst          805                       # number of ReadCleanReq MSHR misses
system.l2.ReadCleanReq_mshr_misses::total          805                       # number of ReadCleanReq MSHR misses
system.l2.ReadCleanReq_mshr_miss_latency::.cpu.inst     52559500                       # number of ReadCleanReq MSHR miss cycles
system.l2.ReadCleanReq_mshr_miss_latency::total     52559500                       # number of ReadCleanReq MSHR miss cycles
system.l2.ReadCleanReq_mshr_miss_rate::.cpu.inst     0.847368                       # mshr miss rate for ReadCleanReq accesses
system.l2.ReadCleanReq_mshr_miss_rate::total     0.847368                       # mshr miss rate for ReadCleanReq accesses
system.l2.ReadCleanReq_avg_mshr_miss_latency::.cpu.inst 65291.304348                       # average ReadCleanReq mshr miss latency
system.l2.ReadCleanReq_avg_mshr_miss_latency::total 65291.304348                       # average ReadCleanReq mshr miss latency
system.l2.ReadSharedReq_hits::.cpu.data         12736                       # number of ReadSharedReq hits
system.l2.ReadSharedReq_hits::total             12736                       # number of ReadSharedReq hits
system.l2.ReadSharedReq_misses::.cpu.data         6394                       # number of ReadSharedReq misses
system.l2.ReadSharedReq_misses::total            6394                       # number of ReadSharedReq misses
system.l2.ReadSharedReq_miss_latency::.cpu.data    504156500                       # number of ReadSharedReq miss cycles
system.l2.ReadSharedReq_miss_latency::total    504156500                       # number of ReadSharedReq miss cycles
system.l2.ReadSharedReq_accesses::.cpu.data        19130                       # number of ReadSharedReq accesses(hits+misses)
system.l2.ReadSharedReq_accesses::total         19130                       # number of ReadSharedReq accesses(hits+misses)
system.l2.ReadSharedReq_miss_rate::.cpu.data     0.334239                       # miss rate for ReadSharedReq accesses
system.l2.ReadSharedReq_miss_rate::total     0.334239                       # miss rate for ReadSharedReq accesses
system.l2.ReadSharedReq_avg_miss_latency::.cpu.data 78848.373475                       # average ReadSharedReq miss latency
system.l2.ReadSharedReq_avg_miss_latency::total 78848.373475                       # average ReadSharedReq miss latency
system.l2.ReadSharedReq_mshr_hits::.cpu.data            4                       # number of ReadSharedReq MSHR hits
system.l2.ReadSharedReq_mshr_hits::total            4                       # number of ReadSharedReq MSHR hits
system.l2.ReadSharedReq_mshr_misses::.cpu.data         6390                       # number of ReadSharedReq MSHR misses
system.l2.ReadSharedReq_mshr_misses::total         6390                       # number of ReadSharedReq MSHR misses
system.l2.ReadSharedReq_mshr_miss_latency::.cpu.data    439989500                       # number of ReadSharedReq MSHR miss cycles
system.l2.ReadSharedReq_mshr_miss_latency::total    439989500                       # number of ReadSharedReq MSHR miss cycles
system.l2.ReadSharedReq_mshr_miss_rate::.cpu.data     0.334030                       # mshr miss rate for ReadSharedReq accesses
system.l2.ReadSharedReq_mshr_miss_rate::total     0.334030                       # mshr miss rate for ReadSharedReq accesses
system.l2.ReadSharedReq_avg_mshr_miss_latency::.cpu.data 68855.946792                       # average ReadSharedReq mshr miss latency
system.l2.ReadSharedReq_avg_mshr_miss_latency::total 68855.946792                       # average ReadSharedReq mshr miss latency
system.l2.power_state.pwrStateResidencyTicks::UNDEFINED  58315466000                       # Cumulative time (in ticks) in various power states
system.l2.tags.tagsinuse                 54012.137544                       # Cycle average of tags in use
system.l2.tags.total_refs                      180581                       # Total number of references to valid blocks.
system.l2.tags.sampled_refs                     78808                       # Sample count of references to valid blocks.
system.l2.tags.avg_refs                      2.291404                       # Average number of references to valid blocks.
system.l2.tags.warmup_cycle                     77000                       # Cycle when the warmup percentage was hit.
system.l2.tags.occ_blocks::.cpu.inst       801.665055                       # Average occupied blocks per requestor
system.l2.tags.occ_blocks::.cpu.data     53210.472489                       # Average occupied blocks per requestor
system.l2.tags.occ_percent::.cpu.inst        0.006116                       # Average percentage of cache occupancy
system.l2.tags.occ_percent::.cpu.data        0.405964                       # Average percentage of cache occupancy
system.l2.tags.occ_percent::total            0.412080                       # Average percentage of cache occupancy
system.l2.tags.occ_task_id_blocks::1024         78808                       # Occupied blocks per task id
system.l2.tags.age_task_id_blocks_1024::0            7                       # Occupied blocks per task id
system.l2.tags.age_task_id_blocks_1024::1           69                       # Occupied blocks per task id
system.l2.tags.age_task_id_blocks_1024::2          688                       # Occupied blocks per task id
system.l2.tags.age_task_id_blocks_1024::3         6917                       # Occupied blocks per task id
system.l2.tags.age_task_id_blocks_1024::4        71127                       # Occupied blocks per task id
system.l2.tags.occ_task_id_percent::1024     0.601257                       # Percentage of cache occupancy per task id
system.l2.tags.tag_accesses                    259393                       # Number of tag accesses
system.l2.tags.data_accesses                   259393                       # Number of data accesses
system.l2.tags.power_state.pwrStateResidencyTicks::UNDEFINED  58315466000                       # Cumulative time (in ticks) in various power states
system.mem_ctrls.avgPriority_.cpu.inst::samples       805.00                       # Average QoS priority value for accepted requests
system.mem_ctrls.avgPriority_.cpu.data::samples     78003.00                       # Average QoS priority value for accepted requests
system.mem_ctrls.priorityMinLatency      0.000000018750                       # per QoS priority minimum request to response latency (s)
system.mem_ctrls.priorityMaxLatency      0.000000592000                       # per QoS priority maximum request to response latency (s)
system.mem_ctrls.numReadWriteTurnArounds            0                       # Number of turnarounds from READ to WRITE
system.mem_ctrls.numWriteReadTurnArounds            0                       # Number of turnarounds from WRITE to READ
system.mem_ctrls.numStayReadState              172587                       # Number of times bus staying in READ state
system.mem_ctrls.numStayWriteState                  0                       # Number of times bus staying in WRITE state
system.mem_ctrls.readReqs                       78808                       # Number of read requests accepted
system.mem_ctrls.writeReqs                          0                       # Number of write requests accepted
system.mem_ctrls.readBursts                     78808                       # Number of controller read bursts, including those serviced by the write queue
system.mem_ctrls.writeBursts                        0                       # Number of controller write bursts, including those merged in the write queue
system.mem_ctrls.servicedByWrQ                      0                       # Number of controller read bursts serviced by the write queue
system.mem_ctrls.mergedWrBursts                     0                       # Number of controller write bursts merged with an existing one
system.mem_ctrls.neitherReadNorWriteReqs            0                       # Number of requests that are neither read nor write
system.mem_ctrls.avgRdQLen                       1.04                       # Average read queue length when enqueuing
system.mem_ctrls.avgWrQLen                       0.00                       # Average write queue length when enqueuing
system.mem_ctrls.numRdRetry                         0                       # Number of times read queue was full causing retry
system.mem_ctrls.numWrRetry                         0                       # Number of times write queue was full causing retry
system.mem_ctrls.readPktSize::0                     0                       # Read request sizes (log2)
system.mem_ctrls.readPktSize::1                     0                       # Read request sizes (log2)
system.mem_ctrls.readPktSize::2                     0                       # Read request sizes (log2)
system.mem_ctrls.readPktSize::3                     0                       # Read request sizes (log2)
system.mem_ctrls.readPktSize::4                     0                       # Read request sizes (log2)
system.mem_ctrls.readPktSize::5                 78808                       # Read request sizes (log2)
system.mem_ctrls.writePktSize::0                    0                       # Write request sizes (log2)
system.mem_ctrls.writePktSize::1                    0                       # Write request sizes (log2)
system.mem_ctrls.writePktSize::2                    0                       # Write request sizes (log2)
system.mem_ctrls.writePktSize::3                    0                       # Write request sizes (log2)
system.mem_ctrls.writePktSize::4                    0                       # Write request sizes (log2)
system.mem_ctrls.writePktSize::5                    0                       # Write request sizes (log2)
system.mem_ctrls.rdQLenPdf::0                   69671                       # What read queue length does an incoming req see
system.mem_ctrls.rdQLenPdf::1                    9121                       # What read queue length does an incoming req see
system.mem_ctrls.rdQLenPdf::2                      16                       # What read queue length does an incoming req see
[...]
system.mem_ctrls.dram.bw_read::.cpu.data     42803328                       # Total read bandwidth from this memory (bytes/s)
system.mem_ctrls.dram.bw_read::total         43245063                       # Total read bandwidth from this memory (bytes/s)
system.mem_ctrls.dram.bw_inst_read::.cpu.inst       441735                       # Instruction read bandwidth from this memory (bytes/s)
system.mem_ctrls.dram.bw_inst_read::total       441735                       # Instruction read bandwidth from this memory (bytes/s)
system.mem_ctrls.dram.bw_total::.cpu.inst       441735                       # Total bandwidth to/from this memory (bytes/s)
system.mem_ctrls.dram.bw_total::.cpu.data     42803328                       # Total bandwidth to/from this memory (bytes/s)
system.mem_ctrls.dram.bw_total::total        43245063                       # Total bandwidth to/from this memory (bytes/s)
system.mem_ctrls.dram.readBursts                78808                       # Number of DRAM read bursts
system.mem_ctrls.dram.writeBursts                   0                       # Number of DRAM write bursts
system.mem_ctrls.dram.perBankRdBursts::0         4978                       # Per bank write bursts
system.mem_ctrls.dram.perBankRdBursts::1         4960                       # Per bank write bursts
system.mem_ctrls.dram.perBankRdBursts::2         4914                       # Per bank write bursts
system.mem_ctrls.dram.perBankRdBursts::3         5120                       # Per bank write bursts
system.mem_ctrls.dram.perBankRdBursts::4         4840                       # Per bank write bursts
system.mem_ctrls.dram.perBankRdBursts::5         4739                       # Per bank write bursts
system.mem_ctrls.dram.perBankRdBursts::6         4864                       # Per bank write bursts
system.mem_ctrls.dram.perBankRdBursts::7         4869                       # Per bank write bursts
system.mem_ctrls.dram.perBankRdBursts::8         4907                       # Per bank write bursts
system.mem_ctrls.dram.perBankRdBursts::9         4947                       # Per bank write bursts
system.mem_ctrls.dram.perBankRdBursts::10         4927                       # Per bank write bursts
system.mem_ctrls.dram.perBankRdBursts::11         4950                       # Per bank write bursts
system.mem_ctrls.dram.perBankRdBursts::12         4939                       # Per bank write bursts
system.mem_ctrls.dram.perBankRdBursts::13         4901                       # Per bank write bursts
system.mem_ctrls.dram.perBankRdBursts::14         4990                       # Per bank write bursts
system.mem_ctrls.dram.perBankRdBursts::15         4963                       # Per bank write bursts
system.mem_ctrls.dram.perBankWrBursts::0            0                       # Per bank write bursts
system.mem_ctrls.dram.perBankWrBursts::1            0                       # Per bank write bursts
system.mem_ctrls.dram.perBankWrBursts::2            0                       # Per bank write bursts
system.mem_ctrls.dram.perBankWrBursts::3            0                       # Per bank write bursts
system.mem_ctrls.dram.perBankWrBursts::4            0                       # Per bank write bursts
system.mem_ctrls.dram.perBankWrBursts::5            0                       # Per bank write bursts
system.mem_ctrls.dram.perBankWrBursts::6            0                       # Per bank write bursts
system.mem_ctrls.dram.perBankWrBursts::7            0                       # Per bank write bursts
system.mem_ctrls.dram.perBankWrBursts::8            0                       # Per bank write bursts
system.mem_ctrls.dram.perBankWrBursts::9            0                       # Per bank write bursts
system.mem_ctrls.dram.perBankWrBursts::10            0                       # Per bank write bursts
system.mem_ctrls.dram.perBankWrBursts::11            0                       # Per bank write bursts
system.mem_ctrls.dram.perBankWrBursts::12            0                       # Per bank write bursts
system.mem_ctrls.dram.perBankWrBursts::13            0                       # Per bank write bursts
system.mem_ctrls.dram.perBankWrBursts::14            0                       # Per bank write bursts
system.mem_ctrls.dram.perBankWrBursts::15            0                       # Per bank write bursts
system.mem_ctrls.dram.totQLat               684042750                       # Total ticks spent queuing
system.mem_ctrls.dram.totBusLat             394040000                       # Total ticks spent in databus transfers
system.mem_ctrls.dram.totMemAccLat         2161692750                       # Total ticks spent from burst creation until serviced by the DRAM
system.mem_ctrls.dram.avgQLat                 8679.86                       # Average queueing delay per DRAM burst
system.mem_ctrls.dram.avgBusLat               5000.00                       # Average bus latency per DRAM burst
system.mem_ctrls.dram.avgMemAccLat           27429.86                       # Average memory access latency per DRAM burst
system.mem_ctrls.dram.readRowHits               68279                       # Number of row buffer hits during reads
system.mem_ctrls.dram.writeRowHits                  0                       # Number of row buffer hits during writes
system.mem_ctrls.dram.readRowHitRate            86.64                       # Row buffer hit rate for reads
system.mem_ctrls.dram.writeRowHitRate             nan                       # Row buffer hit rate for writes
system.mem_ctrls.dram.bytesPerActivate::samples        10528                       # Bytes accessed per row activation
system.mem_ctrls.dram.bytesPerActivate::mean   479.057751                       # Bytes accessed per row activation
system.mem_ctrls.dram.bytesPerActivate::gmean   416.064899                       # Bytes accessed per row activation
system.mem_ctrls.dram.bytesPerActivate::stdev   247.923294                       # Bytes accessed per row activation
system.mem_ctrls.dram.bytesPerActivate::0-127          379      3.60%      3.60% # Bytes accessed per row activation
system.mem_ctrls.dram.bytesPerActivate::128-255          511      4.85%      8.45% # Bytes accessed per row activation
system.mem_ctrls.dram.bytesPerActivate::256-383          493      4.68%     13.14% # Bytes accessed per row activation
system.mem_ctrls.dram.bytesPerActivate::384-511         6278     59.63%     72.77% # Bytes accessed per row activation
system.mem_ctrls.dram.bytesPerActivate::512-639          468      4.45%     77.21% # Bytes accessed per row activation
system.mem_ctrls.dram.bytesPerActivate::640-767          737      7.00%     84.21% # Bytes accessed per row activation
system.mem_ctrls.dram.bytesPerActivate::768-895          321      3.05%     87.26% # Bytes accessed per row activation
system.mem_ctrls.dram.bytesPerActivate::896-1023           88      0.84%     88.10% # Bytes accessed per row activation
system.mem_ctrls.dram.bytesPerActivate::1024-1151         1253     11.90%    100.00% # Bytes accessed per row activation
system.mem_ctrls.dram.bytesPerActivate::total        10528                       # Bytes accessed per row activation
system.mem_ctrls.dram.bytesRead               5043712                       # Total number of bytes read from DRAM
system.mem_ctrls.dram.bytesWritten                  0                       # Total number of bytes written to DRAM
system.mem_ctrls.dram.avgRdBW               86.490126                       # Average DRAM read bandwidth in MiBytes/s
system.mem_ctrls.dram.avgWrBW                       0                       # Average DRAM write bandwidth in MiBytes/s
system.mem_ctrls.dram.peakBW                 12800.00                       # Theoretical peak bandwidth in MiByte/s
system.mem_ctrls.dram.busUtil                    0.68                       # Data bus utilization in percentage
system.mem_ctrls.dram.busUtilRead                0.68                       # Data bus utilization in percentage for reads
system.mem_ctrls.dram.busUtilWrite               0.00                       # Data bus utilization in percentage for writes
system.mem_ctrls.dram.pageHitRate               86.64                       # Row buffer hit rate, read and write combined
system.mem_ctrls.dram.power_state.pwrStateResidencyTicks::UNDEFINED  58315466000                       # Cumulative time (in ticks) in various power states
system.mem_ctrls.dram.rank0.actEnergy        38463180                       # Energy for activate commands per rank (pJ)
system.mem_ctrls.dram.rank0.preEnergy        20439870                       # Energy for precharge commands per rank (pJ)
system.mem_ctrls.dram.rank0.readEnergy      280487760                       # Energy for read commands per rank (pJ)
system.mem_ctrls.dram.rank0.writeEnergy             0                       # Energy for write commands per rank (pJ)
system.mem_ctrls.dram.rank0.refreshEnergy 4603038960.000001                       # Energy for refresh commands per rank (pJ)
system.mem_ctrls.dram.rank0.actBackEnergy  14034980040                       # Energy for active background per rank (pJ)
system.mem_ctrls.dram.rank0.preBackEnergy  10574208480                       # Energy for precharge background per rank (pJ)
system.mem_ctrls.dram.rank0.actPowerDownEnergy            0                       # Energy for active power-down per rank (pJ)
system.mem_ctrls.dram.rank0.prePowerDownEnergy            0                       # Energy for precharge power-down per rank (pJ)
system.mem_ctrls.dram.rank0.selfRefreshEnergy            0                       # Energy for self refresh per rank (pJ)
system.mem_ctrls.dram.rank0.totalEnergy   29551618290                       # Total energy per rank (pJ)
system.mem_ctrls.dram.rank0.averagePower   506.754388                       # Core power per rank (mW)
system.mem_ctrls.dram.rank0.totalIdleTime            0                       # Total Idle time Per DRAM Rank
system.mem_ctrls.dram.rank0.pwrStateTime::IDLE  27377792250                       # Time in different power states
system.mem_ctrls.dram.rank0.pwrStateTime::REF   1947140000                       # Time in different power states
system.mem_ctrls.dram.rank0.pwrStateTime::SREF            0                       # Time in different power states
system.mem_ctrls.dram.rank0.pwrStateTime::PRE_PDN            0                       # Time in different power states
system.mem_ctrls.dram.rank0.pwrStateTime::ACT  28990533750                       # Time in different power states
system.mem_ctrls.dram.rank0.pwrStateTime::ACT_PDN            0                       # Time in different power states
system.mem_ctrls.dram.rank1.actEnergy        36713880                       # Energy for activate commands per rank (pJ)
system.mem_ctrls.dram.rank1.preEnergy        19513890                       # Energy for precharge commands per rank (pJ)
system.mem_ctrls.dram.rank1.readEnergy      282201360                       # Energy for read commands per rank (pJ)
system.mem_ctrls.dram.rank1.writeEnergy             0                       # Energy for write commands per rank (pJ)
system.mem_ctrls.dram.rank1.refreshEnergy 4603038960.000001                       # Energy for refresh commands per rank (pJ)
system.mem_ctrls.dram.rank1.actBackEnergy  13575365100                       # Energy for active background per rank (pJ)
system.mem_ctrls.dram.rank1.preBackEnergy  10961252640                       # Energy for precharge background per rank (pJ)
system.mem_ctrls.dram.rank1.actPowerDownEnergy            0                       # Energy for active power-down per rank (pJ)
system.mem_ctrls.dram.rank1.prePowerDownEnergy            0                       # Energy for precharge power-down per rank (pJ)
system.mem_ctrls.dram.rank1.selfRefreshEnergy            0                       # Energy for self refresh per rank (pJ)
system.mem_ctrls.dram.rank1.totalEnergy   29478085830                       # Total energy per rank (pJ)
system.mem_ctrls.dram.rank1.averagePower   505.493445                       # Core power per rank (mW)
system.mem_ctrls.dram.rank1.totalIdleTime            0                       # Total Idle time Per DRAM Rank
system.mem_ctrls.dram.rank1.pwrStateTime::IDLE  28387596250                       # Time in different power states
system.mem_ctrls.dram.rank1.pwrStateTime::REF   1947140000                       # Time in different power states
system.mem_ctrls.dram.rank1.pwrStateTime::SREF            0                       # Time in different power states
system.mem_ctrls.dram.rank1.pwrStateTime::PRE_PDN            0                       # Time in different power states
system.mem_ctrls.dram.rank1.pwrStateTime::ACT  27980729750                       # Time in different power states
system.mem_ctrls.dram.rank1.pwrStateTime::ACT_PDN            0                       # Time in different power states
system.mem_ctrls.power_state.pwrStateResidencyTicks::UNDEFINED  58315466000                       # Cumulative time (in ticks) in various power states
system.membus.trans_dist::ReadResp               7195                       # Transaction distribution
system.membus.trans_dist::ReadExReq             71613                       # Transaction distribution
system.membus.trans_dist::ReadExResp            71613                       # Transaction distribution
system.membus.trans_dist::ReadSharedReq          7195                       # Transaction distribution
system.membus.pkt_count_system.l2.mem_side_port::system.mem_ctrls.port       157616                       # Packet count per connected requestor and responder (bytes)
system.membus.pkt_count::total                 157616                       # Packet count per connected requestor and responder (bytes)
system.membus.pkt_size_system.l2.mem_side_port::system.mem_ctrls.port      2521856                       # Cumulative packet size per connected requestor and responder (bytes)
system.membus.pkt_size::total                 2521856                       # Cumulative packet size per connected requestor and responder (bytes)
system.membus.snoops                                0                       # Total snoops (count)
system.membus.snoopTraffic                          0                       # Total snoop traffic (bytes)
system.membus.snoop_fanout::samples             78808                       # Request fanout histogram
system.membus.snoop_fanout::mean                    0                       # Request fanout histogram
system.membus.snoop_fanout::stdev                   0                       # Request fanout histogram
system.membus.snoop_fanout::underflows              0      0.00%      0.00% # Request fanout histogram
system.membus.snoop_fanout::0                   78808    100.00%    100.00% # Request fanout histogram
system.membus.snoop_fanout::1                       0      0.00%    100.00% # Request fanout histogram
system.membus.snoop_fanout::overflows               0      0.00%    100.00% # Request fanout histogram
system.membus.snoop_fanout::min_value               0                       # Request fanout histogram
system.membus.snoop_fanout::max_value               0                       # Request fanout histogram
system.membus.snoop_fanout::total               78808                       # Request fanout histogram
system.membus.power_state.pwrStateResidencyTicks::UNDEFINED  58315466000                       # Cumulative time (in ticks) in various power states
system.membus.reqLayer0.occupancy           101869000                       # Layer occupancy (ticks)
system.membus.reqLayer0.utilization               0.2                       # Layer utilization (%)
system.membus.respLayer1.occupancy          260468250                       # Layer occupancy (ticks)
system.membus.respLayer1.utilization              0.4                       # Layer utilization (%)
system.tol2bus.trans_dist::ReadResp             20080                       # Transaction distribution
system.tol2bus.trans_dist::WritebackDirty        86444                       # Transaction distribution
system.tol2bus.trans_dist::WritebackClean          216                       # Transaction distribution
system.tol2bus.trans_dist::CleanEvict            2251                       # Transaction distribution
system.tol2bus.trans_dist::ReadExReq            71613                       # Transaction distribution
system.tol2bus.trans_dist::ReadExResp           71613                       # Transaction distribution
system.tol2bus.trans_dist::ReadCleanReq           950                       # Transaction distribution
system.tol2bus.trans_dist::ReadSharedReq        19130                       # Transaction distribution
system.tol2bus.pkt_count_system.cpu.icache.mem_side_port::system.l2.cpu_side_port         2116                       # Packet count per connected requestor and responder (bytes)
system.tol2bus.pkt_count_system.cpu.dcache.mem_side_port::system.l2.cpu_side_port       270181                       # Packet count per connected requestor and responder (bytes)
system.tol2bus.pkt_count::total                272297                       # Packet count per connected requestor and responder (bytes)
system.tol2bus.pkt_size_system.cpu.icache.mem_side_port::system.l2.cpu_side_port        37312                       # Cumulative packet size per connected requestor and responder (bytes)
system.tol2bus.pkt_size_system.cpu.dcache.mem_side_port::system.l2.cpu_side_port      5669984                       # Cumulative packet size per connected requestor and responder (bytes)
system.tol2bus.pkt_size::total                5707296                       # Cumulative packet size per connected requestor and responder (bytes)
system.tol2bus.snoops                               0                       # Total snoops (count)
system.tol2bus.snoopTraffic                         0                       # Total snoop traffic (bytes)
system.tol2bus.snoop_fanout::samples            91693                       # Request fanout histogram
system.tol2bus.snoop_fanout::mean            0.000251                       # Request fanout histogram
system.tol2bus.snoop_fanout::stdev           0.015836                       # Request fanout histogram
system.tol2bus.snoop_fanout::underflows             0      0.00%      0.00% # Request fanout histogram
system.tol2bus.snoop_fanout::0                  91670     99.97%     99.97% # Request fanout histogram
system.tol2bus.snoop_fanout::1                     23      0.03%    100.00% # Request fanout histogram
system.tol2bus.snoop_fanout::2                      0      0.00%    100.00% # Request fanout histogram
system.tol2bus.snoop_fanout::overflows              0      0.00%    100.00% # Request fanout histogram
system.tol2bus.snoop_fanout::min_value              0                       # Request fanout histogram
system.tol2bus.snoop_fanout::max_value              1                       # Request fanout histogram
system.tol2bus.snoop_fanout::total              91693                       # Request fanout histogram
system.tol2bus.power_state.pwrStateResidencyTicks::UNDEFINED  58315466000                       # Cumulative time (in ticks) in various power states
system.tol2bus.reqLayer0.occupancy          133632000                       # Layer occupancy (ticks)
system.tol2bus.reqLayer0.utilization              0.2                       # Layer utilization (%)
system.tol2bus.respLayer0.occupancy            950000                       # Layer occupancy (ticks)
system.tol2bus.respLayer0.utilization             0.0                       # Layer utilization (%)
system.tol2bus.respLayer1.occupancy          90745495                       # Layer occupancy (ticks)
system.tol2bus.respLayer1.utilization             0.2                       # Layer utilization (%)
system.voltage_domain.voltage                       1                       # Voltage in Volts

---------- End Simulation Statistics   ----------
